[Format]      =  1
[Precision]   =  1e-008
[MinAngle]    =  10
[DoSmartMesh] =  1
[Depth]       =  136.37754166666667
[LengthUnits] =  millimeters
[ProblemType] =  planar
[Coordinates] =  cartesian
[PrevSoln] = ""
[dT] = 0
[Comment]     =  "Add comments here."
[PointProps]   = 0
[BdryProps]   = 0
[BlockProps]  = 1
  <BeginBlock>
    <BlockName> = "air"
    <Kx> = 0.025000000000000001
    <Ky> = 0.025000000000000001
    <Kt> = 0
    <qv> = 0
  <EndBlock>
[ConductorProps]  = 0
[NumPoints] = 7
11.460518101266498	42.771235834989376	0	0	0
4.0513724558468471	44.094313366076378	0	200	0
2.6608541666666667	42.82569852627573	0	0	0
2.6608541666666667	33.964673610457815	0	200	0
3.2978333333333336	32.861393330428264	0	200	0
7.2253217521146196	30.593856834605756	0	200	0
8.1361007002568506	30.364341188855292	0	200	0
[NumSegments] = 4
2	3	-1	0	0	0	0
4	5	-1	0	0	200	0
5	6	-1	0	0	200	0
6	0	-1	0	0	0	0
[NumArcSegments] = 3
0	1	9.7504197440795313	2.6769116371297557	0	1	0	0	1
1	2	95.249580255920463	2.6769116371297557	0	1	0	0	1
3	4	60.000000000000007	2.6769116371297557	0	1	0	0	1
[NumHoles] = 0
[NumBlockLabels] = 1
7.3791757172999155	37.81631458270882	1	0.23374999999999999	200	0
