[Format]      =  1
[Precision]   =  1e-008
[MinAngle]    =  10
[DoSmartMesh] =  1
[Depth]       =  136.37754166666667
[LengthUnits] =  millimeters
[ProblemType] =  planar
[Coordinates] =  cartesian
[PrevSoln] = ""
[dT] = 0
[Comment]     =  "Add comments here."
[PointProps]   = 0
[BdryProps]   = 0
[BlockProps]  = 1
  <BeginBlock>
    <BlockName> = "air"
    <Kx> = 0.025000000000000001
    <Ky> = 0.025000000000000001
    <Kt> = 0
    <qv> = 0
  <EndBlock>
[ConductorProps]  = 0
[NumPoints] = 7
11.460518101266498	42.771235834989376	0	0	0
4.0513724558468471	44.094313366076378	0	200	0
2.6608541666666667	42.82569852627573	0	0	0
2.6608541666666667	33.964673610457815	0	200	0
3.2978333333333336	32.861393330428264	0	200	0
7.2253217521146196	30.593856834605756	0	200	0
8.1361007002568506	30.364341188855292	0	200	0
[NumSegments] = 4
2	3	-1	0	0	0	0
4	5	-1	0	0	200	0
5	6	-1	0	0	200	0
6	0	-1	0	0	0	0
[NumArcSegments] = 3
0	1	9.7504197440795313	2.6769116371297557	0	1	0	0	1
1	2	95.249580255920463	2.6769116371297557	0	1	0	0	1
3	4	60.000000000000007	2.6769116371297557	0	1	0	0	1
[NumHoles] = 0
[NumBlockLabels] = 1
7.3791757172999155	37.81631458270882	1	0.23374999999999999	200	0
[Solution]
2719
11.460518101266498	42.771235834989376	0	-2
11.457000761682107	42.758108944952951	0	-2
11.430167710455798	42.77868004600451	0	-2
11.405166656653343	42.564661431420745	0	-2
11.396489272387372	42.706963579855802	0	-2
11.399817319645098	42.786124257019644	0	-2
11.353332551624579	42.371213917888539	0	-2
11.212411615511991	42.512641778974071	0	-2
11.339116538023701	42.801012679049904	0	-2
11.118883038889866	42.673318926447799	0	-2
11.301498446595815	42.177766404356333	0	-2
11.115405067653137	42.275061090568997	0	-2
11.012917527017759	42.520557509005641	0	-2
11.217714974780902	42.830789523110433	0	-2
10.974911848295307	42.890343211231482	0	-2
10.89325006500917	42.725156071535935	0	-2
11.249664341567053	41.984318890824127	0	-2
11.068709331174009	42.077127576282969	0	-2
10.86032541222434	42.373637616803151	0	-2
10.884450665893835	42.163190995644008	0	-2
10.838224291101058	42.549293619101995	0	-2
10.732108721809709	42.949896899352538	0	-2
10.715430283014779	42.676828407597625	0	-2
11.197830236538291	41.790871377291921	0	-2
11.062980620465515	41.902294310414504	0	-2
10.889120884193691	41.882999723502465	0	-2
10.657196823809384	42.497877507384224	0	-2
10.679078871216793	42.264004138363774	0	-2
10.700266515912167	42.068125791615408	0	-2
10.489305595324113	43.009450587473587	0	-2
10.57222408463751	42.822776480428395	0	-2
10.451148397883832	42.65826697861084	0	-2
11.145996131509527	41.597423863759715	0	-2
10.987429718441357	41.713110972721168	0	-2
10.756007717365495	41.81024103613138	0	-2
10.495855779153935	42.401008380374122	0	-2
10.418323278863607	42.252894585287102	0	-2
10.508172792172703	42.111912140087469	0	-2
10.624682761857327	41.886179812996509	0	-2
10.494998379682288	41.962178253495509	0	-2
10.359324311443768	42.943230247988893	0	-2
10.274736030776857	43.062079271100011	0	-2
10.323133104898638	42.801913355546908	0	-2
10.319010958663492	42.570854653333448	0	-2
11.094162026480763	41.403976350227509	0	-2
10.90188088648314	41.536452511605518	0	-2
10.684146984814923	41.67664097292672	0	-2
10.250483339827143	42.428007942098191	0	-2
10.265157408948101	42.185893083890676	0	-2
10.270779281290771	42.02150208798615	0	-2
10.494650318554338	41.784035259487361	0	-2
10.365018012697211	41.886687153776229	0	-2
10.160744416743841	42.824188153817282	0	-2
10.0601664662296	43.114707954726441	0	-2
10.02831701378528	42.920776122137738	0	-2
10.190075528731985	42.662924585246571	0	-2
11.042327921451999	41.210528836695296	0	-2
10.899911790772682	41.34238143217015	0	-2
10.650471934363669	41.526288977181153	0	-2
10.703533064229841	41.381636814581022	0	-2
10.425030323706572	41.634051918944728	0	-2
10.074555822423594	42.299074930408274	0	-2
10.036717321181406	42.523287131226411	0	-2
10.119293923093627	42.085597261244381	0	-2
10.162765229598762	41.887544009139503	0	-2
10.331298093342882	41.745231707203772	0	-2
9.9906760703540645	42.727884694931078	0	-2
9.8455969016823417	43.167336638352872	0	-2
9.8721362399425754	42.996019293840632	0	-2
9.8576861447326873	42.823261765048272	0	-2
10.990493816423236	41.017081323163083	0	-2
10.885738803070849	41.148818554451495	0	-2
10.685749309153998	41.231711798463813	0	-2
10.514804702156381	41.453253822955375	0	-2
10.535341064606664	41.218630041145644	0	-2
10.318242678417956	41.499196845965173	0	-2
10.197489959061475	41.688292621099357	0	-2
9.9256530021822318	42.344344639377141	0	-2
9.9462115694938262	42.122717436597803	0	-2
9.8358857645048037	42.471479368958484	0	-2
9.7876488051300257	42.675350045153259	0	-2
9.9999221000346985	41.954884689524967	0	-2
9.992208843235252	41.778835952663435	0	-2
9.6310273371350856	43.219965321979295	0	-2
9.7202533045193658	42.957166817891135	0	-2
9.6271730561389148	42.831016081382742	0	-2
10.938659711394472	40.823633809630877	0	-2
10.778717304720816	40.911487044969839	0	-2
10.729149684689697	41.087108272207701	0	-2
10.327935514666116	41.327454187257224	0	-2
10.387593783495911	41.03090808705231	0	-2
10.238580163451266	41.161633714642619	0	-2
10.571469890871377	40.928207047690563	0	-2
10.148850715544466	41.469266012223457	0	-2
10.016565165941797	41.596744978259274	0	-2
9.8071805870531126	42.243420493210671	0	-2
9.7575243791253428	41.877311567360138	0	-2
9.6352102566151601	41.992844826620647	0	-2
9.6425748409620997	42.160935401782339	0	-2
9.6377349032740227	42.52900839389789	0	-2
9.6537208464586364	42.345150282214661	0	-2
9.6077593708658515	42.679148614976242	0	-2
9.846888521767001	41.761397121932383	0	-2
9.3832657186176718	43.182053894574466	0	-2
9.5793908417062994	43.025983295063504	0	-2
9.4339197165131452	43.04444292579344	0	-2
9.1692972354253151	43.312593482970485	0	-2
9.4719988976808267	42.843179915597737	0	-2
10.886825606365708	40.630186296098671	0	-2
10.688309554255049	40.752974575214921	0	-2
10.04864243416684	41.263985084419538	0	-2
10.232084424414955	40.973382251691504	0	-2
10.427558391843228	40.774429914159576	0	-2
10.085804578544462	41.051450101590376	0	-2
10.55277331019974	40.700983643957272	0	-2
9.9224334990606433	41.438980651792811	0	-2
9.7752190375246677	41.633782100569931	0	-2
9.6243613943785178	41.745228476898909	0	-2
9.5032604566877996	41.888451680964806	0	-2
9.497084802483208	42.072480482528277	0	-2
9.4902294426820486	42.231771043494689	0	-2
9.4772858082912244	42.39928006069276	0	-2
9.4317634451760739	42.541219494011479	0	-2
9.454939937420427	42.688467375088507	0	-2
9.2787051298436722	43.069447805584566	0	-2
9.3426121050277171	42.929701798395833	0	-2
8.9384321845704306	43.358907563466076	0	-2
9.0135067948940293	43.198915224742109	0	-2
9.1252217225648149	43.061971730916675	0	-2
9.306639671893139	42.676639986187723	0	-2
10.834991501336944	40.436738782566465	0	-2
10.742713821415942	40.619063814346248	0	-2
9.9667049980705258	41.140141741407305	0	-2
9.8138860682741171	41.304360204511369	0	-2
10.171824934825031	40.818911618851182	0	-2
10.285231667240636	40.713537603891744	0	-2
10.512074099874871	40.561639807837444	0	-2
9.9575087167507128	40.905206161859219	0	-2
9.7586473623981629	41.468231785115698	0	-2
9.5576261736746559	41.556297264180195	0	-2
9.4670582459021677	41.735031825137931	0	-2
9.2576379202229866	41.860638541058684	0	-2
9.3687486689787409	41.977874374860114	0	-2
9.350574653355249	42.138372176627925	0	-2
9.3181125856842648	42.372087715939209	0	-2
9.2831457851090988	42.529735618766416	0	-2
9.2046664122757225	42.820222987976464	0	-2
8.7075671337155462	43.405221643961674	0	-2
8.8427286260450764	43.216389613372137	0	-2
8.9296078398211804	43.043368733610713	0	-2
9.0533166082016088	42.904413781476379	0	-2
9.0687888761928086	42.708187639680922	0	-2
10.78315739630818	40.243291269034259	0	-2
10.671293980794005	40.493401081098568	0	-2
10.583460727389483	40.344093298638228	0	-2
9.8184617649783856	41.131489522913007	0	-2
9.6707639760749551	41.20782631719868	0	-2
9.6259102681865443	41.367920314267394	0	-2
10.092756366233482	40.583918408076556	0	-2
9.9486673230065268	40.710863814908919	0	-2
10.283132706599304	40.558746246413101	0	-2
10.429975809849607	40.414213920407612	0	-2
9.7659715981959145	40.871137844066638	0	-2
9.3466867270054514	41.633252899685729	0	-2
9.4026978542261297	41.393573340510869	0	-2
9.119943036844079	41.923288257882881	0	-2
9.1674638679518328	41.694195086340294	0	-2
9.0892175865005527	42.071412579410683	0	-2
9.2008752233447879	42.179134845813437	0	-2
9.1623694910221918	42.329430631259619	0	-2
9.1404568357504541	42.479207380643054	0	-2
8.67197157441238	43.198710062158845	0	-2
8.5741727048054788	43.32189077614693	0	-2
8.2458370320057774	43.497849804952864	0	-2
8.7286170737462321	42.996954356747494	0	-2
8.8852258804743069	42.862696157436602	0	-2
8.8762765047038226	42.697973645342785	0	-2
8.9285881734152515	42.541522098102739	0	-2
10.731323291279416	40.049843755502053	0	-2
10.595147678670434	40.165690292203571	0	-2
10.419568261120974	40.131984422267315	0	-2
10.322135934588097	40.284425312228272	0	-2
9.6307305175820552	41.046459451919986	0	-2
9.4269725457086633	41.219935608864439	0	-2
10.245788354967942	40.413503362409514	0	-2
9.9396583710241622	40.467996915001365	0	-2
10.104594126640988	40.362963419398042	0	-2
9.7880340792060991	40.712022700346814	0	-2
9.7636781479470933	40.553242441366635	0	-2
9.5805644478849086	40.846568232319918	0	-2
9.2722216903848782	41.489466589798958	0	-2
9.2517931167425296	41.227111273641299	0	-2
9.0185273100464958	41.811039791145021	0	-2
8.9197447848428659	42.031532611129087	0	-2
9.1180579030745559	41.439938100301553	0	-2
8.9614405956849517	41.512106295603843	0	-2
9.0293932343474896	42.227752506463226	0	-2
8.8941984607303883	42.326461670617057	0	-2
8.5282923160087698	43.046163846324426	0	-2
8.4196784272177521	43.292401364697248	0	-2
7.9934221791571858	43.436743073463127	0	-2
8.2065421327415802	43.288327521865192	0	-2
7.7841069302960086	43.590477965944046	0	-2
8.5846249680749818	42.843134584661271	0	-2
8.712794325277434	42.675901619446257	0	-2
8.7453641862947702	42.423782511078898	0	-2
10.679489186250652	39.856396241969847	0	-2
10.488870263277777	39.964866153718489	0	-2
10.251881831082283	40.064068707100809	0	-2
10.157799241205316	40.203444373697138	0	-2
9.4246485731147551	41.04462468037088	0	-2
9.7624665256951637	40.385299341708972	0	-2
9.8641515549233212	40.251633685753625	0	-2
10.015842446003624	40.113303492554373	0	-2
9.5098015871167796	40.673443725840492	0	-2
9.5447544731525937	40.449243590765803	0	-2
9.3935888374350593	40.842141235060005	0	-2
9.0678192356041762	41.097971117400029	0	-2
9.2067461462399685	40.974425684111168	0	-2
9.0046263278192065	41.27281624026886	0	-2
8.8287291424220466	41.883115647116973	0	-2
8.8445784696453185	41.638915100048393	0	-2
8.7500033780692181	42.07025337039785	0	-2
8.7477733903566133	42.24018935884061	0	-2
8.8354417046554143	41.394371386394695	0	-2
8.4442462925510124	42.913514692372289	0	-2
8.302746501812889	43.09809504411745	0	-2
8.0352417853054803	43.269570209854201	0	-2
7.8425609840374486	43.364503773576864	0	-2
8.0549231517408586	43.10301926708869	0	-2
7.3188550287344691	43.663384283413066	0	-2
7.5403060802287962	43.555618468611605	0	-2
7.6732517713023833	43.495799677974887	0	-2
8.4709485874193167	42.623279886871188	0	-2
8.5876901440793603	42.495379168171311	0	-2
8.5991349104829187	42.322589694483462	0	-2
10.62765508122189	39.662948728437641	0	-2
10.485998459911048	39.780689167757195	0	-2
10.246222403131382	39.880446490378574	0	-2
10.065158856658806	39.91151318858568	0	-2
9.6588635248571499	40.253114732285397	0	-2
9.760659108980402	40.134773103051252	0	-2
9.8888915473715251	39.948880548680378	0	-2
9.3461855094695725	40.533111265692689	0	-2
9.232154682379468	40.716033081529233	0	-2
9.440728871727714	40.257461690703316	0	-2
9.1492807181487361	40.838329381647611	0	-2
8.8824340503389578	41.111988737366261	0	-2
9.0044202471566006	40.867310805247861	0	-2
8.8046892879612493	41.24415235256091	0	-2
8.6456300539485795	41.79540591420281	0	-2
8.6170590626912844	41.963497361920631	0	-2
8.681079575906308	41.635765251485516	0	-2
8.5246717627900441	42.106799920007546	0	-2
8.6788090820012247	41.400921765010253	0	-2
8.2929293019282451	42.87153016603046	0	-2
8.1288806800817284	42.952497319444653	0	-2
7.8772058258778967	43.200865906397951	0	-2
7.6759223543991819	43.350040587437803	0	-2
7.9472587009793481	42.974431014269598	0	-2
7.0862290779536972	43.699837442147583	0	-2
7.3831568830133838	43.514104047278629	0	-2
7.1697267649102994	43.503110715627827	0	-2
7.5034209769646836	43.383765156381564	0	-2
8.2522613721751554	42.655233230099277	0	-2
8.3224796724253736	42.425251129010469	0	-2
8.4413151692086323	42.321392432326796	0	-2
10.575820976193128	39.469501214905435	0	-2
10.444467230707945	39.600144091342457	0	-2
10.293191733758619	39.707088430320539	0	-2
10.10441127371455	39.663834982153155	0	-2
9.8768060058431093	39.769101730101021	0	-2
9.5465349883280179	40.091637484715569	0	-2
9.7126242380842438	39.986247908775077	0	-2
9.742456263412862	39.838162488019996	0	-2
9.1691364197881526	40.549744907623577	0	-2
9.2387282844276566	40.339907950010932	0	-2
8.9950400140105149	40.660944709194617	0	-2
9.2462600086795916	40.155241874742337	0	-2
9.3627423264114427	40.01174917150928	0	-2
8.7455423566448598	40.955232136470492	0	-2
8.6812630990383308	41.153171886819905	0	-2
8.8276639168197537	40.771948912113139	0	-2
8.4554366348614387	41.78113600017565	0	-2
8.3467662209646853	41.981820412098863	0	-2
8.5710524491123188	41.514786570845871	0	-2
8.3240690581491457	42.215742758337804	0	-2
8.5502120109621274	41.311258621747804	0	-2
8.0419700891523842	42.720162586235439	0	-2
7.7006256924556249	43.087545291225084	0	-2
7.5275582381073081	43.132090766511368	0	-2
7.8631666666721562	42.716455801679892	0	-2
7.6373766045390559	42.948666242318168	0	-2
7.7157663874179763	42.817735423609349	0	-2
6.9560113172545908	43.629330588936284	0	-2
6.8536031271729279	43.736290600882093	0	-2
7.3291613327102878	43.360794563189984	0	-2
6.9360066142218484	43.482607402602902	0	-2
7.0638791495031539	43.367326478462864	0	-2
7.2014085412139064	43.24202839826772	0	-2
7.3694828443570088	43.195367855103058	0	-2
8.1112706328519319	42.486236613480159	0	-2
8.1381229602363643	42.325707740481882	0	-2
10.523986871164364	39.276053701373229	0	-2
10.411067975377875	39.409978438366963	0	-2
10.26585071397443	39.507950164874984	0	-2
9.9486611728199339	39.625770537111755	0	-2
10.076395344200609	39.440791822196147	0	-2
9.6453254092089562	39.722469624207932	0	-2
9.7688532758202715	39.559092139846804	0	-2
9.5256799194605328	39.888254370127846	0	-2
9.0182285635180275	40.455671122131236	0	-2
9.0670863961028232	40.200575116204909	0	-2
8.8427549181853475	40.55750803089726	0	-2
9.1773224994858005	39.980256364005747	0	-2
9.3467740756708171	39.821444473040813	0	-2
8.5510105487636974	40.881277126840857	0	-2
8.4786868361081886	41.119576334385428	0	-2
8.5568577211941932	40.706485561458145	0	-2
8.6587908845095516	40.564373243304878	0	-2
8.2704028154625071	41.827392381238624	0	-2
8.3086077423902047	41.659404971074316	0	-2
8.3932758267274483	41.502611905412436	0	-2
8.173016698929672	42.112516099869637	0	-2
8.1347626054345277	41.933604997432873	0	-2
8.3465415138378667	41.330656521827834	0	-2
7.9645824275873629	42.556757085602214	0	-2
7.4850903648833746	42.958501818513739	0	-2
7.7837789508442512	42.556199773031942	0	-2
7.4199637969800527	42.795410199194272	0	-2
7.6202287270286764	42.535128265805497	0	-2
7.4878400173858157	42.633443644490711	0	-2
6.7937982290632153	43.538384264973615	0	-2
6.6209771763921585	43.772743759616603	0	-2
6.6432588264505377	43.608274185519747	0	-2
6.8760324679496172	43.342117598829589	0	-2
7.0326198145367673	43.198022223562674	0	-2
7.2582535698237924	43.066449786017429	0	-2
7.9289012432987809	42.379508500593865	0	-2
7.9966366502850246	42.161123061144586	0	-2
10.472152766135601	39.082606187841023	0	-2
10.267138770612469	39.268619952665645	0	-2
9.9022158188561225	39.446886590243444	0	-2
10.013490134468677	39.309712248286104	0	-2
9.5641034159473559	39.564461600502639	0	-2
9.4027727668477361	39.63886569585857	0	-2
9.7355379569135998	39.386179000633405	0	-2
8.9322029827435045	40.306968074790419	0	-2
8.8565754509923309	40.048436357063345	0	-2
8.7957910115676938	40.202542163465843	0	-2
8.9913628616886658	39.952125913388166	0	-2
8.7568927351685399	40.394665830116075	0	-2
9.1445200451538415	39.697179141621469	0	-2
9.257497258282541	39.596502698087058	0	-2
8.3737021217131513	40.893754631548788	0	-2
8.4098035431225551	40.745862288071166	0	-2
8.3180899052198676	41.165940148986138	0	-2
8.2445205274464239	41.015845098537746	0	-2
8.4646497678626833	40.557878784705586	0	-2
8.5227387134522061	40.372517986353593	0	-2
8.1037627308405558	41.754299342504197	0	-2
8.1591277342400037	41.555707620168782	0	-2
7.9597589551934096	41.897526239453164	0	-2
8.1806502538055099	41.294551693205285	0	-2
7.2554091058931984	42.856746157492992	0	-2
7.7440242176995531	42.24496939501995	0	-2
7.2852159818710822	42.633491972541371	0	-2
7.5170832539913937	42.406467100262688	0	-2
7.5888930870232443	42.267175571891137	0	-2
7.2888577813514344	42.423397905179549	0	-2
6.6659360449936402	43.375919482588046	0	-2
6.3883512256113866	43.80919691835112	0	-2
6.4825724836151464	43.649991972777755	0	-2
6.5498677677670782	43.471070603602548	0	-2
6.7715188054029678	43.216076928073065	0	-2
6.8467035705382857	43.070623817294305	0	-2
7.0476720674480289	42.968609764575767	0	-2
7.7132148032526819	42.097115095289581	0	-2
7.7971242654002477	41.971539157588829	0	-2
10.420318661106837	38.889158674308817	0	-2
10.267647801977862	39.033734917777721	0	-2
10.123774068525327	39.187067987352378	0	-2
9.8722545696170876	39.275195073881051	0	-2
10.013730413020465	39.064208088548426	0	-2
9.5594459394582696	39.386861331197125	0	-2
9.389755595771609	39.384549897156894	0	-2
9.616443891551345	39.214724949954949	0	-2
8.747464924501509	39.781923752658358	0	-2
8.6979422729757196	40.000698924418906	0	-2
8.6345030330005237	40.247752215104576	0	-2
8.943127799959365	39.726129498745777	0	-2
9.0721722361030199	39.42194095541673	0	-2
8.9454097001641077	39.522679867304596	0	-2
9.2320869214811427	39.447325247536696	0	-2
8.2100261130521002	40.824442795505703	0	-2
8.2928103592795068	40.648455651637356	0	-2
8.1023390177134189	41.053369737572353	0	-2
8.040586308175806	40.919914564913526	0	-2
8.2770586428900828	40.410279592539673	0	-2
8.3725491403414694	40.191515983607559	0	-2
7.839658091167812	41.765224550743689	0	-2
7.9870335769641647	41.614707742651106	0	-2
8.053790144193135	41.407378912412902	0	-2
8.0471470122371223	41.189669124130539	0	-2
7.1196137700630153	42.750249882543876	0	-2
7.0897017339721673	42.580287828225366	0	-2
7.318638099650407	42.267693624442821	0	-2
7.4546681377653012	42.186290190066934	0	-2
7.586132555489236	42.015504947203041	0	-2
7.0850970289246096	42.349771632356216	0	-2
6.6302266595922221	43.133337059352684	0	-2
6.4735583241429442	43.223892495546998	0	-2
6.4195591360361179	43.396604226592089	0	-2
6.1557252748306164	43.845650077085629	0	-2
6.2551810488926209	43.719849212727674	0	-2
6.3255315209924792	43.552206512644993	0	-2
6.8958481293400302	42.918477193139928	0	-2
6.705753557296811	42.989064940008888	0	-2
6.9474207688594412	42.761712872894364	0	-2
7.672147476851455	41.731217907905631	0	-2
7.5420562919506864	41.84208964134961	0	-2
10.265958883389311	38.879053977004055	0	-2
10.368484556078073	38.695711160776611	0	-2
10.131788062445979	38.974803634781303	0	-2
9.8209525604714791	39.100708743132863	0	-2
9.8737937482569098	38.926682352508429	0	-2
9.3020049875634694	39.239291554102458	0	-2
9.4738241657904041	39.102745871043616	0	-2
9.6682065027017323	39.001986822587604	0	-2
8.5853645324614227	39.7684725705898	0	-2
8.7797534736661316	39.601385594668685	0	-2
8.5422032929005436	40.107971963363006	0	-2
8.495515748745234	39.90406264199369	0	-2
8.9188481148863996	39.238763124817581	0	-2
9.0835560445417833	39.260424771114828	0	-2
8.7610162480338349	39.290599702805558	0	-2
8.667335841005686	39.456475785599459	0	-2
8.094136562647444	40.662464019303755	0	-2
8.1410372559138331	40.504049939549439	0	-2
7.8193452649996003	41.058225370627788	0	-2
7.8180149352892689	40.884505285870503	0	-2
7.9093269331837659	40.736713010477864	0	-2
8.2268209183479879	40.258128138657149	0	-2
8.3737628121123802	40.022007207613854	0	-2
8.1328835378541946	40.128321889070712	0	-2
7.7638302822075937	41.568692144458154	0	-2
7.8424262630624222	41.354776698871092	0	-2
7.7628807434838105	41.211793959103581	0	-2
6.8809489042173535	42.422316897245885	0	-2
6.8602201482713197	42.602584054156729	0	-2
7.2222489988188832	42.141837231523674	0	-2
7.3762037386241497	41.966715766463878	0	-2
6.8859271221878018	42.264503698583596	0	-2
6.9856170680476701	42.142063088406083	0	-2
6.5364668901256913	43.022684890222436	0	-2
6.3963749527322813	43.060222151457197	0	-2
6.2850532508061905	43.212753213715651	0	-2
6.1835300176762402	43.371974064763037	0	-2
5.9230993240498462	43.882103235820139	0	-2
5.9963043705335668	43.708361859287443	0	-2
6.1498346227333913	43.598938340747694	0	-2
6.759313038772599	42.83527892425689	0	-2
6.5623396424828275	42.879977505728462	0	-2
7.5144398147506237	41.665304699969369	0	-2
7.562737029060469	41.513539819070886	0	-2
7.373190727314153	41.782928789498555	0	-2
10.088208130967343	38.771857131234697	0	-2
10.316650451049309	38.502263647244405	0	-2
10.192784934353281	38.585810221903358	0	-2
9.8824011498172446	38.744838984752036	0	-2
9.6546714603032644	38.818432513131192	0	-2
9.1728827303040426	39.132421367084952	0	-2
9.3228563005318588	39.089154099253179	0	-2
9.5222855812508538	38.958357883958236	0	-2
9.3765855310180015	38.953640528448524	0	-2
8.553227424085863	39.609021394163129	0	-2
8.390984478994044	39.655966821986254	0	-2
8.2565277485278177	39.758182447298125	0	-2
8.9057995355514485	39.07315013139916	0	-2
8.7398012797398561	39.119549326213708	0	-2
9.0661325380394313	39.018541936615826	0	-2
8.6175676278886275	39.25433989340565	0	-2
8.4617872105686605	39.493315596274194	0	-2
8.5073513926161564	39.353054947382461	0	-2
7.9930170570117234	40.430669312608437	0	-2
8.033151436696258	40.265710592402627	0	-2
7.6026228731087464	41.178794435784241	0	-2
7.6396747065803821	40.933574827563397	0	-2
7.7188453594175099	40.741866466306426	0	-2
7.8000759289740742	40.500391710509483	0	-2
8.2195807169540682	39.951561628117013	0	-2
7.8850587957795222	40.132320865882718	0	-2
8.0286764256095466	39.903435312420278	0	-2
7.8913024779946239	39.976738275758265	0	-2
7.6425738403609529	41.375730953080364	0	-2
6.7212253569052649	42.314436796597782	0	-2
6.7234100296069998	42.483382877086854	0	-2
6.6842831509673468	42.647750265200656	0	-2
7.2202207128093701	41.984820163672772	0	-2
7.0643750849084253	41.965568831126902	0	-2
7.1935352491239124	41.8217957458425	0	-2
6.7941524793593002	42.136023337205344	0	-2
6.8711688919050635	41.960627671595404	0	-2
6.3546585021074309	42.867286039689731	0	-2
6.1764595224412311	42.952196163483123	0	-2
6.1065260842790767	43.210897099967283	0	-2
5.9921551276067087	43.519873587680706	0	-2
5.9554029301326974	43.347353054578754	0	-2
5.6891334655244705	43.908629502102173	0	-2
5.7913465644625148	43.765094132550722	0	-2
5.8319186892397834	43.593618703996512	0	-2
6.5340729240613626	42.582695525792431	0	-2
6.3988149101461778	42.674893687695686	0	-2
7.2922053411115249	41.516504734017872	0	-2
7.4441157096629631	41.407265727361676	0	-2
10.051423501663834	38.537440378905828	0	-2
10.212982240991781	38.115368620179986	0	-2
10.159780289426088	38.336960460252833	0	-2
9.7888268267288243	38.588682192337643	0	-2
9.4706494341377443	38.815074570504393	0	-2
9.5949513477295056	38.644338027156117	0	-2
9.2285495659607228	38.97048534845645	0	-2
9.3065845393660958	38.825770988492323	0	-2
8.3147933703085144	39.505230093274129	0	-2
8.1363027530270369	39.585781698682062	0	-2
7.9494792729543642	39.752992403326445	0	-2
8.9678515717660829	38.880594199074821	0	-2
8.7659149862091343	38.892835836435857	0	-2
8.6437189847520006	38.983452238748178	0	-2
8.5674975101571	39.115108920882889	0	-2
9.07071320377778	38.76275664560869	0	-2
8.3908981254131945	39.137012119360008	0	-2
8.2227042753764348	39.39351854882846	0	-2
8.2555211151901648	39.252511720651647	0	-2
7.8684843244818499	40.30702511720407	0	-2
7.5097427550220122	41.039351565672575	0	-2
7.4703057190142825	41.256216019373518	0	-2
7.4243965765770765	40.89517438236804	0	-2
7.5283263090574826	40.745370678252058	0	-2
7.6125945112088456	40.583687626677396	0	-2
7.5862912323005256	40.43323544541191	0	-2
7.6939032321093714	40.324850119716906	0	-2
7.7148886288160767	40.154525321990683	0	-2
7.7585866000266339	39.895304734433921	0	-2
6.6042598482596757	42.161241504669206	0	-2
6.5087880647491181	42.420967645461985	0	-2
6.951562329401523	41.761745569074492	0	-2
7.0910929691047748	41.717046658600424	0	-2
6.6791392549711111	41.997528732581799	0	-2
6.709156713116573	41.82002450868702	0	-2
6.180778451745911	42.719149420034263	0	-2
6.027781803556751	42.880674937149792	0	-2
5.9832564148416543	43.081746091673757	0	-2
5.7951600231905323	43.387190419645869	0	-2
5.7871447890021832	43.114080417108916	0	-2
5.4551676069990958	43.935155768384199	0	-2
5.5729201941328199	43.743363366530644	0	-2
5.6788915727193361	43.571350323610147	0	-2
6.3539822626244957	42.415104770333485	0	-2
6.2571134862656344	42.535999972235615	0	-2
7.1135992156372492	41.572270069054369	0	-2
7.2329636789447349	41.339021365466387	0	-2
9.9965134450242736	38.378239531327758	0	-2
9.824826890669371	38.389813854705075	0	-2
10.161148135963018	37.921921106647773	0	-2
9.9871796578819811	38.072204029915589	0	-2
9.9106361514317705	38.233377132359074	0	-2
9.6515712466761574	38.4408776624647	0	-2
9.3929123675051578	38.642623548922757	0	-2
9.473564825310941	38.471516601597187	0	-2
9.2104203378575065	38.692413763707087	0	-2
7.9404945020440287	39.583214513785457	0	-2
8.0780264596999594	39.398828936660813	0	-2
7.7870335594848168	39.702826198958633	0	-2
8.8029511801768852	38.747199360813326	0	-2
8.9376371433104698	38.680555876284465	0	-2
8.5302300192203209	38.882143552828907	0	-2
8.6647059911200746	38.688293245697693	0	-2
8.3908672639309021	38.971475890307708	0	-2
9.0822450158577404	38.49747460792576	0	-2
8.231406752727743	39.058084336961386	0	-2
8.0542191287844265	39.141678929650936	0	-2
7.3326217997893162	41.00949157280354	0	-2
7.3558384345808809	41.154239690416389	0	-2
7.2096989074725046	40.929610459716784	0	-2
7.3227066642710241	40.743841303381636	0	-2
7.4266363967514302	40.594037599265654	0	-2
7.4356545654791288	40.408010141889243	0	-2
7.3931813982573367	40.253848387143165	0	-2
7.4867755390924673	40.124195182934507	0	-2
7.6227023039324466	40.009775174840954	0	-2
7.6251467373418471	39.829005246740635	0	-2
6.4393605760957069	41.996679447329697	0	-2
6.3867118082378367	42.199415913367574	0	-2
6.9598166126206564	41.604780893164794	0	-2
6.7966940683137249	41.650856841336669	0	-2
6.5439294136752135	41.862031680331718	0	-2
6.542192071368544	41.653401305391803	0	-2
6.0643914239366454	42.624724068008327	0	-2
5.9586060203932014	42.730891557121744	0	-2
5.8675796694271734	42.920116363711784	0	-2
5.5994117140344937	43.312047651715602	0	-2
5.7130934140988563	42.913179944395658	0	-2
5.6280791071634058	43.042356895182479	0	-2
5.221201748473721	43.961682034666225	0	-2
5.3715064296117774	43.759203678262359	0	-2
5.4794976398851603	43.52396290359539	0	-2
6.2176440845001704	42.341544517057955	0	-2
6.0107876257489474	42.484764358922639	0	-2
7.0726192274792954	41.313477732620825	0	-2
7.1086997549237179	41.15517101818952	0	-2
9.733219106572113	38.274443344287256	0	-2
10.109314030934254	37.728473593115567	0	-2
10.007372863195648	37.919744838267789	0	-2
9.7648169410637102	38.130554784503239	0	-2
9.7311775389253814	37.934640885374506	0	-2
9.5859133738680189	38.27260979750907	0	-2
9.2778735285226848	38.4840223659684	0	-2
9.3667204894170357	38.336957233211578	0	-2
7.8534875331960263	39.448782424153897	0	-2
7.8696055755650729	39.289463850029556	0	-2
7.5934348311961184	39.683416187981635	0	-2
7.6937462675065191	39.459959516205892	0	-2
8.8627180166188584	38.499033098606525	0	-2
8.5296009917290139	38.738138346992557	0	-2
8.2641796592598862	38.864927803023114	0	-2
8.5502353402748863	38.575923426190279	0	-2
8.6688245247261442	38.467909021723862	0	-2
9.1514103651171546	38.334160609397074	0	-2
8.9350523479999975	38.316464922672736	0	-2
8.0694750906999211	38.912389477390398	0	-2
7.8200844317068139	39.13589124624643	0	-2
7.8837218350386369	38.987610535366883	0	-2
6.9950859056044958	40.894650597427194	0	-2
7.0929723831814213	40.744839870021785	0	-2
7.2408528115984092	40.580922655391397	0	-2
7.1867455875331219	40.422660867270658	0	-2
7.2334872193420479	40.262069444302114	0	-2
7.3065765207208972	40.034663446611532	0	-2
7.4899629443725892	39.891672312574066	0	-2
7.4219607049137979	39.728052431102377	0	-2
6.387749341255005	41.7936763738143	0	-2
6.2362522763390844	41.945483881228192	0	-2
6.1714548254269461	42.149929889603627	0	-2
6.8541704253241464	41.488398223558839	0	-2
6.6821506914865125	41.498671746610903	0	-2
6.3214615515100725	41.565535383157709	0	-2
6.503251558134318	41.410103925127856	0	-2
5.833491377122737	42.652142430726315	0	-2
5.7320773217475303	42.75970770505355	0	-2
5.4408442207092342	43.250096702872014	0	-2
5.4578579263398099	43.080709265844376	0	-2
5.5441226963542549	42.889394560536296	0	-2
4.9872358899483462	43.988208300948259	0	-2
5.2134424370993422	43.798895490961549	0	-2
5.018965913304303	43.823150266138413	0	-2
5.2839060548625882	43.585179240427095	0	-2
5.3323607145584857	43.381294640719062	0	-2
6.00445913312985	42.254629707475523	0	-2
5.8484567082323187	42.505067151588321	0	-2
5.7951092666186685	42.350414053833717	0	-2
6.9107068262208777	41.325610111342023	0	-2
6.9565262480461039	41.178616718198214	0	-2
6.8902157958126553	41.0396584475954	0	-2
10.05747992590549	37.535026079583361	0	-2
9.8902581645830328	37.820066766318057	0	-2
9.8489773564330196	37.628416644753592	0	-2
9.5313372714749747	38.020194094741889	0	-2
9.7118403612009843	37.73680272220647	0	-2
9.5630656341785105	37.828564249255017	0	-2
9.4431501844790162	38.191804421488783	0	-2
9.2653388325437689	38.198235586081168	0	-2
7.710098706565093	39.300882712682267	0	-2