[Format]      =  4.0
[Frequency]   =  0
[Precision]   =  1e-008
[MinAngle]    =  10
[DoSmartMesh] =  1
[Depth]       =  136.37754166666667
[LengthUnits] =  millimeters
[ProblemType] =  planar
[Coordinates] =  cartesian
[ACSolver]    =  0
[PrevType]    =  0
[PrevSoln]    =  ""
[Comment]     =  "Add comments here."
[PointProps]   = 0
[BdryProps]   = 0
[BlockProps]  = 1
  <BeginBlock>
    <BlockName> = "air"
    <Mu_x> = 0.025000000000000001
    <Mu_y> = 0.025000000000000001
    <H_c> = 0
    <H_cAngle> = 0
    <J_re> = 0
    <J_im> = 0
    <Sigma> = 0
    <d_lam> = 0
    <Phi_h> = 0
    <Phi_hx> = 0
    <Phi_hy> = 0
    <LamType> = 0
    <LamFill> = 1
    <NStrands> = 0
    <WireD> = 0
    <BHPoints> = 0
  <EndBlock>
[CircuitProps]  = 0
[NumPoints] = 7
11.460518101266498	42.771235834989376	0	0
4.0513724558468471	44.094313366076378	0	200
2.6608541666666667	42.82569852627573	0	0
2.6608541666666667	33.964673610457815	0	200
3.2978333333333336	32.861393330428264	0	200
7.2253217521146196	30.593856834605756	0	200
8.1361007002568506	30.364341188855292	0	200
[NumSegments] = 4
2	3	-1	0	0	0
4	5	-1	0	0	200
5	6	-1	0	0	200
6	0	-1	0	0	0
[NumArcSegments] = 3
0	1	9.7504197440795313	2.6769116371297557	0	0	200	1
1	2	95.249580255920463	2.6769116371297557	0	0	200	1
3	4	60.000000000000007	2.6769116371297557	0	0	200	1
[NumHoles] = 0
[NumBlockLabels] = 1
7.3791757172999155	37.81631458270882	0	-1	0	0	0	1	0
