[Format]      =  4.0
[Frequency]   =  0
[Precision]   =  1e-008
[MinAngle]    =  10
[DoSmartMesh] =  1
[Depth]       =  136.37754166666667
[LengthUnits] =  millimeters
[ProblemType] =  planar
[Coordinates] =  cartesian
[ACSolver]    =  0
[PrevType]    =  0
[PrevSoln]    =  ""
[Comment]     =  "Add comments here."
[PointProps]   = 0
[BdryProps]   = 1
  <BeginBdry>
    <BdryName> = "Exterieur"
    <BdryType> = 0
    <A_0> = 0
    <A_1> = 0
    <A_2> = 0
    <Phi> = 0
    <c0> = 0
    <c0i> = 0
    <c1> = 0
    <c1i> = 0
    <Mu_ssd> = 0
    <Sigma_ssd> = 0
    <innerangle> = 0
    <outerangle> = 0
  <EndBdry>
[BlockProps]  = 18
  <BeginBlock>
    <BlockName> = "air"
    <Mu_x> = 1
    <Mu_y> = 1
    <H_c> = 0
    <H_cAngle> = 0
    <J_re> = 0
    <J_im> = 0
    <Sigma> = 0
    <d_lam> = 0
    <Phi_h> = 0
    <Phi_hx> = 0
    <Phi_hy> = 0
    <LamType> = 0
    <LamFill> = 1
    <NStrands> = 0
    <WireD> = 0
    <BHPoints> = 0
  <EndBlock>
  <BeginBlock>
    <BlockName> = "Nomex"
    <Mu_x> = 1
    <Mu_y> = 1
    <H_c> = 0
    <H_cAngle> = 0
    <J_re> = 0
    <J_im> = 0
    <Sigma> = 0
    <d_lam> = 0
    <Phi_h> = 0
    <Phi_hx> = 0
    <Phi_hy> = 0
    <LamType> = 0
    <LamFill> = 1
    <NStrands> = 0
    <WireD> = 0
    <BHPoints> = 0
  <EndBlock>
  <BeginBlock>
    <BlockName> = "copper"
    <Mu_x> = 1
    <Mu_y> = 1
    <H_c> = 0
    <H_cAngle> = 0
    <J_re> = 0
    <J_im> = 0
    <Sigma> = 58
    <d_lam> = 0
    <Phi_h> = 0
    <Phi_hx> = 0
    <Phi_hy> = 0
    <LamType> = 0
    <LamFill> = 1
    <NStrands> = 0
    <WireD> = 1
    <BHPoints> = 0
  <EndBlock>
  <BeginBlock>
    <BlockName> = "A+"
    <Mu_x> = 1
    <Mu_y> = 1
    <H_c> = 0
    <H_cAngle> = 0
    <J_re> = 11.88618214903339
    <J_im> = 0
    <Sigma> = 58
    <d_lam> = 0
    <Phi_h> = 0
    <Phi_hx> = 0
    <Phi_hy> = 0
    <LamType> = 0
    <LamFill> = 1
    <NStrands> = 0
    <WireD> = 1
    <BHPoints> = 0
  <EndBlock>
  <BeginBlock>
    <BlockName> = "A-"
    <Mu_x> = 1
    <Mu_y> = 1
    <H_c> = 0
    <H_cAngle> = 0
    <J_re> = -11.88618214903339
    <J_im> = -0
    <Sigma> = 58
    <d_lam> = 0
    <Phi_h> = 0
    <Phi_hx> = 0
    <Phi_hy> = 0
    <LamType> = 0
    <LamFill> = 1
    <NStrands> = 0
    <WireD> = 1
    <BHPoints> = 0
  <EndBlock>
  <BeginBlock>
    <BlockName> = "B+"
    <Mu_x> = 1
    <Mu_y> = 1
    <H_c> = 0
    <H_cAngle> = 0
    <J_re> = -5.9430910745166923
    <J_im> = -0
    <Sigma> = 58
    <d_lam> = 0
    <Phi_h> = 0
    <Phi_hx> = 0
    <Phi_hy> = 0
    <LamType> = 0
    <LamFill> = 1
    <NStrands> = 0
    <WireD> = 1
    <BHPoints> = 0
  <EndBlock>
  <BeginBlock>
    <BlockName> = "B-"
    <Mu_x> = 1
    <Mu_y> = 1
    <H_c> = 0
    <H_cAngle> = 0
    <J_re> = 5.9430910745166923
    <J_im> = 0
    <Sigma> = 58
    <d_lam> = 0
    <Phi_h> = 0
    <Phi_hx> = 0
    <Phi_hy> = 0
    <LamType> = 0
    <LamFill> = 1
    <NStrands> = 0
    <WireD> = 1
    <BHPoints> = 0
  <EndBlock>
  <BeginBlock>
    <BlockName> = "C+"
    <Mu_x> = 1
    <Mu_y> = 1
    <H_c> = 0
    <H_cAngle> = 0
    <J_re> = -5.9430910745167003
    <J_im> = -0
    <Sigma> = 58
    <d_lam> = 0
    <Phi_h> = 0
    <Phi_hx> = 0
    <Phi_hy> = 0
    <LamType> = 0
    <LamFill> = 1
    <NStrands> = 0
    <WireD> = 1
    <BHPoints> = 0
  <EndBlock>
  <BeginBlock>
    <BlockName> = "C-"
    <Mu_x> = 1
    <Mu_y> = 1
    <H_c> = 0
    <H_cAngle> = 0
    <J_re> = 5.9430910745167003
    <J_im> = 0
    <Sigma> = 58
    <d_lam> = 0
    <Phi_h> = 0
    <Phi_hx> = 0
    <Phi_hy> = 0
    <LamType> = 0
    <LamFill> = 1
    <NStrands> = 0
    <WireD> = 1
    <BHPoints> = 0
  <EndBlock>
  <BeginBlock>
    <BlockName> = "FeSi M19 3%"
    <Mu_x> = 1000
    <Mu_y> = 1000
    <H_c> = 0
    <H_cAngle> = 0
    <J_re> = 0
    <J_im> = 0
    <Sigma> = 4.011231448054553
    <d_lam> = 0.34999999999999998
    <Phi_h> = 0
    <Phi_hx> = 0
    <Phi_hy> = 0
    <LamType> = 0
    <LamFill> = 0.96999999999999997
    <NStrands> = 0
    <WireD> = 0
    <BHPoints> = 26
      0	0
      0.10000000000000001	9
      0.20000000000000001	17
      0.29999999999999999	26
      0.40000000000000002	35
      0.5	43
      0.59999999999999998	52
      0.69999999999999996	60
      0.80000000000000004	71
      0.90000000000000002	88
      1	111
      1.1000000000000001	145
      1.2	213
      1.3	446
      1.3999999999999999	1172
      1.5	2865
      1.6000000000000001	5185
      1.7	8405
      1.8	13307
      1.8999999999999999	21050
      2	54248
      2.1000000000000001	118110
      2.2000000000000002	197697
      2.2999999999999998	277265
      2.3999999999999999	356842
      2.5	436420
  <EndBlock>
  <BeginBlock>
    <BlockName> = "FeSi 0.35mm"
    <Mu_x> = 1000
    <Mu_y> = 1000
    <H_c> = 0
    <H_cAngle> = 0
    <J_re> = 0
    <J_im> = 0
    <Sigma> = 4.011231448054553
    <d_lam> = 0.34999999999999998
    <Phi_h> = 0
    <Phi_hx> = 0
    <Phi_hy> = 0
    <LamType> = 0
    <LamFill> = 0.96999999999999997
    <NStrands> = 0
    <WireD> = 0
    <BHPoints> = 26
      0	0
      0.10000000000000001	24
      0.20000000000000001	36
      0.29999999999999999	44
      0.40000000000000002	54
      0.5	62
      0.59999999999999998	70
      0.69999999999999996	81
      0.80000000000000004	94
      0.90000000000000002	112
      1	134
      1.1000000000000001	165
      1.2	210
      1.3	290
      1.3999999999999999	460
      1.5	980
      1.6000000000000001	2660
      1.7	5700
      1.8	10700
      1.8999999999999999	18400
      2	30000
      2.1000000000000001	45000
      2.2000000000000002	70000
      2.2999999999999998	120000
      2.3999999999999999	200000
      2.5	280000
  <EndBlock>
  <BeginBlock>
    <BlockName> = "Losil 800/65"
    <Mu_x> = 2000
    <Mu_y> = 2000
    <H_c> = 0
    <H_cAngle> = 0
    <J_re> = 0
    <J_im> = 0
    <Sigma> = 1.6699999999999999
    <d_lam> = 0
    <Phi_h> = 0
    <Phi_hx> = 0
    <Phi_hy> = 0
    <LamType> = 0
    <LamFill> = 1
    <NStrands> = 0
    <WireD> = 0
    <BHPoints> = 26
      0	0
      0.10000000000000001	18
      0.20000000000000001	37
      0.29999999999999999	55
      0.40000000000000002	74
      0.5	84
      0.59999999999999998	96
      0.69999999999999996	110
      0.80000000000000004	130
      0.90000000000000002	155
      1	190
      1.1000000000000001	240
      1.2	320
      1.3	450
      1.3999999999999999	680
      1.5	1200
      1.6000000000000001	2200
      1.7	5000
      1.8	9000
      1.8999999999999999	15500
      2	24000
      2.1000000000000001	36000
      2.2000000000000002	75789
      2.2999999999999998	155366
      2.3999999999999999	234944
      2.5	314521
  <EndBlock>
  <BeginBlock>
    <BlockName> = "Matiere_ROTOR"
    <Mu_x> = 2000
    <Mu_y> = 2000
    <H_c> = 0
    <H_cAngle> = 0
    <J_re> = 0
    <J_im> = 0
    <Sigma> = 7.6745970836531079
    <d_lam> = 0
    <Phi_h> = 0
    <Phi_hx> = 0
    <Phi_hy> = 0
    <LamType> = 0
    <LamFill> = 1
    <NStrands> = 0
    <WireD> = 0
    <BHPoints> = 26
      0	0
      0.10000000000000001	42
      0.20000000000000001	70
      0.29999999999999999	79
      0.40000000000000002	86
      0.5	95
      0.59999999999999998	106
      0.69999999999999996	118
      0.80000000000000004	132
      0.90000000000000002	149
      1	176
      1.1000000000000001	210
      1.2	274
      1.3	347
      1.3999999999999999	576
      1.5	791
      1.6000000000000001	2141
      1.7	4187
      1.8	8275
      1.8999999999999999	13500
      2	23947
      2.1000000000000001	40320
      2.2000000000000002	120000
      2.2999999999999998	200000
      2.3999999999999999	280000
      2.5	360000
  <EndBlock>
  <BeginBlock>
    <BlockName> = "Sm2Co17"
    <Mu_x> = 1.05
    <Mu_y> = 1.05
    <H_c> = 810932.32908727613
    <H_cAngle> = 0
    <J_re> = 0
    <J_im> = 0
    <Sigma> = 1.2121212121212122e-012
    <d_lam> = 0
    <Phi_h> = 0
    <Phi_hx> = 0
    <Phi_hy> = 0
    <LamType> = 0
    <LamFill> = 1
    <NStrands> = 0
    <WireD> = 0
    <BHPoints> = 0
  <EndBlock>
  <BeginBlock>
    <BlockName> = "FeSi M19 3% SHUNT"
    <Mu_x> = 1000
    <Mu_y> = 1000
    <H_c> = 0
    <H_cAngle> = 0
    <J_re> = 0
    <J_im> = 0
    <Sigma> = 4.011231448054553
    <d_lam> = 0.34999999999999998
    <Phi_h> = 0
    <Phi_hx> = 0
    <Phi_hy> = 0
    <LamType> = 0
    <LamFill> = 1
    <NStrands> = 0
    <WireD> = 0
    <BHPoints> = 26
      0	0
      0.10000000000000001	9
      0.20000000000000001	17
      0.29999999999999999	26
      0.40000000000000002	35
      0.5	43
      0.59999999999999998	52
      0.69999999999999996	60
      0.80000000000000004	71
      0.90000000000000002	88
      1	111
      1.1000000000000001	145
      1.2	213
      1.3	446
      1.3999999999999999	1172
      1.5	2865
      1.6000000000000001	5185
      1.7	8405
      1.8	13307
      1.8999999999999999	21050
      2	54248
      2.1000000000000001	118110
      2.2000000000000002	197697
      2.2999999999999998	277265
      2.3999999999999999	356842
      2.5	436420
  <EndBlock>
  <BeginBlock>
    <BlockName> = "CX13VDW"
    <Mu_x> = 2000
    <Mu_y> = 2000
    <H_c> = 0
    <H_cAngle> = 0
    <J_re> = 0
    <J_im> = 0
    <Sigma> = 1.2987012987012987
    <d_lam> = 0
    <Phi_h> = 0
    <Phi_hx> = 0
    <Phi_hy> = 0
    <LamType> = 0
    <LamFill> = 1
    <NStrands> = 0
    <WireD> = 0
    <BHPoints> = 32
      0	0
      0.0118	262
      0.029499999999999998	720
      0.0407	1049
      0.063399999999999998	1532
      0.079299999999999995	1863
      0.1148	2315
      0.16389999999999999	2799
      0.2069	3092
      0.3221	3614
      0.4083	3914
      0.51549999999999996	4388
      0.59809999999999997	4888
      0.64490000000000003	5216
      0.7016	5689
      0.73409999999999997	5995
      0.80259999999999998	6770
      1.1120000000000001	13561
      1.2625999999999999	20121
      1.3768	27517
      1.4829000000000001	37246
      1.5527	48142
      1.6000000000000001	86000
      1.7	166000
      1.8	246000
      1.8999999999999999	326000
      2	406000
      2.1000000000000001	486000
      2.2000000000000002	566000
      2.2999999999999998	646000
      2.3999999999999999	726000
      2.5	806000
  <EndBlock>
  <BeginBlock>
    <BlockName> = "XD15NW"
    <Mu_x> = 2000
    <Mu_y> = 2000
    <H_c> = 0
    <H_cAngle> = 0
    <J_re> = 0
    <J_im> = 0
    <Sigma> = 1.2121212121212122e-012
    <d_lam> = 0
    <Phi_h> = 0
    <Phi_hx> = 0
    <Phi_hy> = 0
    <LamType> = 0
    <LamFill> = 1
    <NStrands> = 0
    <WireD> = 0
    <BHPoints> = 29
      0	0
      0.0134	359
      0.024199999999999999	902
      0.033500000000000002	1230
      0.046699999999999998	1738
      0.057700000000000001	2043
      0.073999999999999996	2520
      0.084900000000000003	2898
      0.10639999999999999	3351
      0.13370000000000001	3848
      0.16520000000000001	4174
      0.22520000000000001	4701
      0.2893	4953
      0.39179999999999998	5512
      0.45290000000000002	5795
      0.52159999999999995	6333
      0.59379999999999999	6897
      0.88219999999999998	13965
      0.99019999999999997	20704
      1.0812999999999999	29830
      1.1378999999999999	37490
      1.1776	43295
      1.2	61200
      1.3999999999999999	221200
      1.6000000000000001	381200
      1.8	541200
      2	701200
      2.2000000000000002	861200
      2.3999999999999999	1021200
  <EndBlock>
  <BeginBlock>
    <BlockName> = "BS_S98"
    <Mu_x> = 2000
    <Mu_y> = 2000
    <H_c> = 0
    <H_cAngle> = 0
    <J_re> = 0
    <J_im> = 0
    <Sigma> = 1.2987012987012987
    <d_lam> = 0
    <Phi_h> = 0
    <Phi_hx> = 0
    <Phi_hy> = 0
    <LamType> = 0
    <LamFill> = 1
    <NStrands> = 0
    <WireD> = 0
    <BHPoints> = 0
  <EndBlock>
[CircuitProps]  = 0
[NumPoints] = 675
-25.034624999999998	0	0	9
-2.4062305432916182	24.918717933777319	0	3
-2.8555733151481295	29.572073290225003	0	3
-4.181165996840992	24.682996167351437	0	3
-4.9619626349065369	29.292332519798013	0	3
-4.3539130133468973	24.653111170049787	0	3
-5.1669686647655526	29.256866757360672	0	3
-6.1048824166105939	24.278856224500853	0	3
-7.2449164813371283	28.812722933091113	0	3
-6.2747521618518984	24.235509777967533	0	3
-7.446507934373261	28.76128191204177	0	3
-7.9909602062023861	23.725029059487259	0	3
-9.4832030084810768	28.15547332829907	0	3
-8.1569053767122508	23.668488408979307	0	3
-9.6801370063503942	28.088374199638373	0	3
-9.8277710688590219	23.024929200949185	0	3
-11.663022435592735	27.324635867793106	0	3
-9.98876855747889	22.955542938378652	0	3
-11.854084814711177	27.242292319961969	0	3
-11.603990454810637	22.182872997321347	0	3
-13.770935451040447	26.32533294079872	0	3
-11.759047658486065	22.101068912070257	0	3
-13.954948248306058	26.228252649151539	0	3
-13.308667380889947	21.204052005111212	0	3
-15.793946070131767	25.16372558216279	0	3
-13.456828320398527	21.110334446567755	0	3
-15.969774785458943	25.052507078980035	0	3
-14.931291946985082	20.094500981226766	0	3
-17.719581759680707	23.846975487524947	0	3
-15.071643160866227	19.989447749303611	0	3
-17.886142350570474	23.722304471862646	0	3
-16.461860133068637	18.861060676693409	0	3
-19.53597033532235	22.383200859082468	0	3
-16.59353630941726	18.745319459499111	0	3
-19.692235900344851	22.245845969209494	0	3
-17.890935477307838	17.511335661149115	0	3
-21.231913157477372	20.781426354174158	0	3
-18.01312478870998	17.385620041775535	0	3
-21.376920267460676	20.632234428661722	0	3
-19.209707254989684	16.053647438143823	0	3
-22.796954174688974	19.051527445266853	0	3
-19.32165636370847	15.918732495189087	0	3
-22.929808812580266	18.891418301947084	0	3
-20.410044799568638	14.496983140302888	0	3
-24.221444388657083	17.204169534383727	0	3
-20.511063502121971	14.353700669254078	0	3
-24.341327461435132	17.034130299366886	0	3
-21.48454763092964	12.850940120665902	0	3
-25.49660134352154	15.250742197354214	0	3
-21.574013113424147	12.700173505603294	0	3
-25.602773732177493	15.07182121906796	0	3
-22.426591081808898	11.125666781813779	0	3
-26.614563272622885	13.203288963291607	0	3
-22.50395175979471	10.96834554905422	0	3
-26.70637038907477	13.016589349064347	0	3
-23.230367141070506	9.3318000075921432	0	3
-27.568437568908134	11.074433062231197	0	3
-23.2951460602428	9.1688940948502253	0	3
-27.645313391754062	10.881105877268567	0	3
-23.890920262026448	7.4803995831853145	0	3
-28.352343280145298	8.8772995987194534	0	3
-23.94271803880736	7.3129133595847859	0	3
-28.413813844373632	8.678536769404543	0	3
-24.404177915029841	5.5828800078628618	0	3
-28.96144736694951	6.6254346311799219	0	3
-24.442675198901	5.4118460816670497	0	3
-29.007133686090729	6.4224615964508134	0	3
-24.76697569597442	3.6509401207959433	0	3
-29.391994500077949	4.3327216559585846	0	3
-24.791935138379117	3.4774129730343968	0	3
-29.421614902782313	4.1267898120697648	0	3
-24.977076835898156	1.6964909738235305	0	3
-29.641330213283435	2.0132960109521076	0	3
-24.988344553574109	1.5215404570658309	0	3
-29.654702079918483	1.8056749962004397	0	3
-25.033185991407706	-0.2684176041430002	0	3
-29.707917268981511	-0.31854227345075015	0	3
-25.03069251512855	-0.44371286178409108	0	3
-29.704958157542844	-0.52657240646832848	0	3
-24.934957230901169	-2.2316712983220786	0	3
-29.591345135831357	-2.648416638811729	0	3
-24.918717933777319	-2.4062305432916151	0	3
-29.572073290225003	-2.8555733151481255	0	3
-24.682996167351437	-4.1811659968409884	0	3
-29.292332519798013	-4.9619626349065324	0	3
-24.653111170049787	-4.3539130133468991	0	3
-29.256866757360672	-5.1669686647655553	0	3
-24.278856224500853	-6.1048824166105957	0	3
-28.812722933091113	-7.2449164813371318	0	3
-24.235509777967536	-6.2747521618518887	0	3
-28.761281912041774	-7.4465079343732494	0	3
-23.725029059487262	-7.9909602062023763	0	3
-28.155473328299077	-9.4832030084810643	0	3
-23.668488408979311	-8.1569053767122472	0	3
-28.088374199638377	-9.6801370063503889	0	3
-23.024929200949188	-9.8277710688590183	0	3
-27.324635867793109	-11.66302243559273	0	3
-22.955542938378656	-9.9887685574788847	0	3
-27.242292319961972	-11.854084814711172	0	3
-22.182872997321351	-11.603990454810631	0	3
-26.325332940798727	-13.77093545104044	0	3
-22.101068912070261	-11.759047658486054	0	3
-26.228252649151546	-13.954948248306048	0	3
-21.204052005111219	-13.308667380889938	0	3
-25.163725582162801	-15.793946070131758	0	3
-21.110334446567755	-13.456828320398527	0	3
-25.052507078980035	-15.969774785458943	0	3
-20.094500981226762	-14.931291946985082	0	3
-23.846975487524944	-17.719581759680707	0	3
-19.989447749303611	-15.071643160866227	0	3
-23.722304471862646	-17.886142350570474	0	3
-18.861060676693409	-16.461860133068637	0	3
-22.383200859082468	-19.53597033532235	0	3
-18.745319459499111	-16.593536309417264	0	3
-22.245845969209494	-19.692235900344855	0	3
-17.511335661149115	-17.890935477307842	0	3
-20.781426354174158	-21.231913157477372	0	3
-17.385620041775532	-18.01312478870998	0	3
-20.632234428661718	-21.376920267460676	0	3
-16.05364743814382	-19.209707254989684	0	3
-19.051527445266849	-22.796954174688974	0	3
-15.918732495189085	-19.32165636370847	0	3
-18.89141830194708	-22.929808812580269	0	3
-14.496983140302884	-20.410044799568638	0	3
-17.204169534383723	-24.221444388657087	0	3
-14.353700669254078	-20.511063502121971	0	3
-17.034130299366886	-24.341327461435132	0	3
-12.850940120665902	-21.48454763092964	0	3
-15.250742197354214	-25.49660134352154	0	3
-12.700173505603296	-21.574013113424147	0	3
-15.071821219067964	-25.602773732177493	0	3
-11.125666781813781	-22.426591081808898	0	3
-13.203288963291611	-26.614563272622885	0	3
-10.968345549054222	-22.50395175979471	0	3
-13.016589349064349	-26.70637038907477	0	3
-9.331800007592145	-23.230367141070506	0	3
-11.074433062231201	-27.568437568908134	0	3
-9.16889409485022	-23.295146060242804	0	3
-10.881105877268562	-27.645313391754065	0	3
-7.4803995831853101	-23.890920262026452	0	3
-8.8772995987194481	-28.352343280145302	0	3
-7.3129133595847824	-23.94271803880736	0	3
-8.6785367694045377	-28.413813844373632	0	3
-5.5828800078628582	-24.404177915029841	0	3
-6.6254346311799184	-28.96144736694951	0	3
-5.4118460816670462	-24.442675198901	0	3
-6.4224615964508081	-29.007133686090729	0	3
-3.6509401207959398	-24.76697569597442	0	3
-4.3327216559585802	-29.391994500077949	0	3
-3.4774129730343928	-24.791935138379117	0	3
-4.1267898120697604	-29.421614902782313	0	3
-1.6964909738235261	-24.977076835898156	0	3
-2.0132960109521023	-29.641330213283435	0	3
-1.5215404570658266	-24.988344553574109	0	3
-1.8056749962004348	-29.654702079918483	0	3
0.2684176041430042	-25.033185991407706	0	3
0.31854227345075503	-29.707917268981511	0	3
0.44371286178409508	-25.03069251512855	0	3
0.52657240646833325	-29.704958157542844	0	3
2.2316712983220826	-24.934957230901169	0	3
2.6484166388117334	-29.591345135831357	0	3
-21.808875	0	0	3
0	0	0	0
0	46.75	0	2
0	25.034624999999998	0	0
0	30.644624999999998	0	0
-3.0658573374104305e-015	-25.034624999999998	0	0
-3.752884191732096e-015	-30.644624999999998	0	0
-5.7252237860138761e-015	-46.75	0	2
0	21.808875	0	0
-2.6708168961754734e-015	-21.808875	0	0
-3.4352141435800085	30.451475254548388	0	6
-3.5653557422053384	31.605116193507886	0	6
-1.3304270833333334	32.956469826915281	0	6
-1.7236448761549454	32.367977812195853	0	6
-1.9981564001132412	44.23493484795047	0	6
-1.3304270833333334	43.465321291447395	0	6
-5.7797052300952263	43.901219771834882	0	6
-4.1514616838375353	31.533482158829838	0	6
-9.5187727256845864	43.244826925292465	0	6
-9.9645590719405739	42.328616250648025	0	6
-7.2446681707661451	32.177845216420756	0	6
-6.7125360080232257	31.711177834493785	0	6
-4.7361368022537595	31.450979942824496	0	6
-4.5632596872278395	30.302965241334821	0	6
-11.199583807462668	28.524767552606715	0	6
-11.62387518486209	29.605416005527744	0	6
-9.8148559303383553	31.489165481847024	0	6
-10.042362210480995	30.818953592609237	0	6
-13.378914469352933	42.21050506240686	0	6
-12.534746831512784	41.6399365160743	0	6
-16.945238330269188	40.909424194580303	0	6
-12.171469798373892	29.384527461248769	0	6
-20.387013220742702	39.307655513131266	0	6
-20.580476993674193	38.307285963712758	0	6
-15.326051261408134	29.206353630830645	0	6
-14.691268656244858	28.893313492570137	0	6
-12.714869450475396	29.15351138423944	0	6
-12.250754911494301	28.089358224942114	0	6
-18.200720343054083	24.654144081362109	0	6
-18.890246743032485	25.588155642034099	0	6
-17.630418565507139	27.875926547497311	0	6
-17.676709155950988	27.169668616415194	0	6
-23.847921627207761	37.30949911301802	0	6
-22.884844297773196	36.976858880379424	0	6
-26.955981441565687	35.129718964485072	0	6
-19.362012360455942	25.233065777411237	0	6
-29.865912455939529	32.691732336722275	0	6
-29.793869419135241	31.675377444133723	0	6
-22.362989286082399	24.244497311080881	0	6
-21.66881562401279	24.106417584586008	0	6
-19.827104757962402	24.869279203273983	0	6
-19.103381433872151	23.961507865378877	0	6
-23.961507865378877	19.103381433872151	0	6
-24.869279203273983	19.827104757962402	0	6
-24.244497311080881	22.362989286082399	0	6
-24.106417584586008	21.66881562401279	0	6
-32.691732336722275	29.865912455939529	0	6
-31.675377444133723	29.793869419135241	0	6
-35.129718964485072	26.955981441565694	0	6
-25.233065777411237	19.362012360455946	0	6
-37.309499113018013	23.847921627207768	0	6
-36.976858880379417	22.884844297773203	0	6
-27.875926547497308	17.630418565507146	0	6
-27.169668616415191	17.676709155950995	0	6
-25.588155642034096	18.890246743032492	0	6
-24.654144081362102	18.200720343054087	0	6
-28.089358224942114	12.250754911494306	0	6
-29.153511384239437	12.714869450475401	0	6
-29.206353630830641	15.326051261408141	0	6
-28.893313492570133	14.691268656244866	0	6
-39.307655513131259	20.387013220742709	0	6
-38.307285963712751	20.5804769936742	0	6
-40.909424194580296	16.945238330269195	0	6
-29.384527461248769	12.171469798373895	0	6
-42.21050506240686	13.378914469352933	0	6
-41.6399365160743	12.534746831512784	0	6
-31.489165481847024	9.8148559303383553	0	6
-30.818953592609237	10.042362210480995	0	6
-29.605416005527744	11.62387518486209	0	6
-28.524767552606715	11.199583807462668	0	6
-30.302965241334821	4.5632596872278395	0	6
-31.450979942824496	4.7361368022537595	0	6
-32.177845216420756	7.2446681707661451	0	6
-31.711177834493785	6.7125360080232257	0	6
-43.244826925292465	9.5187727256845864	0	6
-42.328616250648025	9.9645590719405739	0	6
-43.901219771834882	5.7797052300952272	0	6
-31.533482158829838	4.1514616838375353	0	6
-44.23493484795047	1.9981564001132439	0	6
-43.465321291447395	1.330427083333336	0	6
-32.956469826915281	1.3304270833333354	0	6
-32.367977812195853	1.7236448761549474	0	6
-31.605116193507886	3.5653557422053401	0	6
-30.451475254548388	3.4352141435800103	0	6
-30.451475254548388	-3.4352141435800068	0	6
-31.605116193507886	-3.5653557422053366	0	6
-32.956469826915281	-1.3304270833333314	0	6
-32.367977812195853	-1.7236448761549434	0	6
-44.23493484795047	-1.9981564001132386	0	6
-43.465321291447395	-1.3304270833333307	0	6
-43.901219771834882	-5.7797052300952236	0	6
-31.533482158829838	-4.1514616838375336	0	6
-43.244826925292465	-9.51877272568459	0	6
-42.328616250648025	-9.9645590719405774	0	6
-32.177845216420756	-7.2446681707661487	0	6
-31.711177834493785	-6.7125360080232293	0	6
-31.450979942824496	-4.7361368022537631	0	6
-30.302965241334821	-4.563259687227843	0	6
-28.524767552606715	-11.199583807462671	0	6
-29.605416005527744	-11.623875184862094	0	6
-31.489165481847024	-9.8148559303383589	0	6
-30.818953592609237	-10.042362210480999	0	6
-42.21050506240686	-13.378914469352937	0	6
-41.6399365160743	-12.534746831512788	0	6
-40.909424194580303	-16.945238330269191	0	6
-29.384527461248769	-12.171469798373895	0	6
-39.307655513131266	-20.387013220742695	0	6
-38.307285963712758	-20.580476993674186	0	6
-29.206353630830645	-15.32605126140813	0	6
-28.893313492570137	-14.691268656244855	0	6
-29.153511384239437	-12.714869450475391	0	6
-28.089358224942114	-12.250754911494296	0	6
-24.654144081362109	-18.20072034305408	0	6
-25.588155642034103	-18.890246743032481	0	6
-27.875926547497311	-17.630418565507135	0	6
-27.169668616415194	-17.676709155950984	0	6
-37.30949911301802	-23.847921627207754	0	6
-36.976858880379424	-22.884844297773189	0	6
-35.129718964485079	-26.95598144156568	0	6
-25.233065777411237	-19.362012360455939	0	6
-32.691732336722275	-29.865912455939522	0	6
-31.675377444133723	-29.793869419135234	0	6
-24.244497311080881	-22.362989286082396	0	6
-24.106417584586008	-21.668815624012787	0	6
-24.869279203273983	-19.827104757962399	0	6
-23.961507865378877	-19.103381433872148	0	6
-19.103381433872151	-23.961507865378874	0	6
-19.827104757962402	-24.86927920327398	0	6
-22.362989286082399	-24.244497311080877	0	6
-21.66881562401279	-24.106417584586005	0	6
-29.865912455939529	-32.691732336722268	0	6
-29.793869419135241	-31.675377444133716	0	6
-26.955981441565697	-35.129718964485065	0	6
-19.36201236045595	-25.233065777411234	0	6
-23.847921627207761	-37.30949911301802	0	6
-22.884844297773196	-36.976858880379424	0	6
-17.630418565507139	-27.875926547497311	0	6
-17.676709155950988	-27.169668616415194	0	6
-18.890246743032485	-25.588155642034099	0	6
-18.200720343054083	-24.654144081362109	0	6
-12.250754911494301	-28.089358224942114	0	6
-12.714869450475396	-29.15351138423944	0	6
-15.326051261408134	-29.206353630830645	0	6
-14.691268656244858	-28.893313492570137	0	6
-20.387013220742702	-39.307655513131266	0	6
-20.580476993674193	-38.307285963712758	0	6
-16.945238330269188	-40.909424194580303	0	6
-12.17146979837389	-29.384527461248769	0	6
-13.378914469352942	-42.210505062406853	0	6
-12.534746831512795	-41.639936516074293	0	6
-9.8148559303383642	-31.489165481847021	0	6
-10.042362210481002	-30.818953592609226	0	6
-11.623875184862101	-29.60541600552774	0	6
-11.199583807462675	-28.524767552606711	0	6
-4.5632596872278484	-30.302965241334817	0	6
-4.7361368022537684	-31.450979942824492	0	6
-7.244668170766154	-32.177845216420749	0	6
-6.7125360080232346	-31.711177834493782	0	6
-9.5187727256845989	-43.244826925292458	0	6
-9.9645590719405845	-42.328616250648018	0	6
-5.7797052300952396	-43.901219771834882	0	6
-4.1514616838375442	-31.533482158829834	0	6
-1.9981564001132466	-44.23493484795047	0	6
-1.3304270833333387	-43.465321291447395	0	6
-1.3304270833333374	-32.956469826915281	0	6
-1.7236448761549494	-32.367977812195853	0	6
-3.5653557422053423	-31.605116193507886	0	6
-3.4352141435800121	-30.451475254548388	0	6
-6.1020994862874112	46.350047269225634	0	0
0	43.465321291447395	0	0
25.034624999999998	-3.0658573374104305e-015	0	9
2.4062305432916151	-24.918717933777319	0	3
2.855573315148126	-29.572073290225003	0	3
4.1811659968409893	-24.682996167351437	0	3
4.9619626349065333	-29.292332519798013	0	3
4.3539130133468946	-24.653111170049787	0	3
5.1669686647655491	-29.256866757360672	0	3
6.1048824166105913	-24.278856224500853	0	3
7.2449164813371247	-28.812722933091113	0	3
6.2747521618518958	-24.235509777967533	0	3
7.4465079343732574	-28.76128191204177	0	3
7.9909602062023835	-23.725029059487259	0	3
9.4832030084810732	-28.15547332829907	0	3
8.1569053767122472	-23.668488408979307	0	3
9.6801370063503906	-28.088374199638373	0	3
9.8277710688590183	-23.024929200949185	0	3
11.663022435592731	-27.324635867793106	0	3
9.9887685574788865	-22.955542938378652	0	3
11.854084814711173	-27.242292319961969	0	3
11.603990454810633	-22.182872997321347	0	3
13.770935451040444	-26.32533294079872	0	3
11.759047658486061	-22.101068912070257	0	3
13.954948248306055	-26.228252649151539	0	3
13.308667380889945	-21.204052005111212	0	3
15.793946070131764	-25.163725582162794	0	3
13.456828320398525	-21.110334446567755	0	3
15.96977478545894	-25.052507078980039	0	3
14.93129194698508	-20.094500981226769	0	3
17.719581759680704	-23.846975487524951	0	3
15.071643160866225	-19.989447749303615	0	3
17.88614235057047	-23.72230447186265	0	3
16.461860133068633	-18.861060676693413	0	3
19.535970335322347	-22.383200859082471	0	3
16.593536309417257	-18.745319459499115	0	3
19.692235900344848	-22.245845969209498	0	3
17.890935477307835	-17.511335661149118	0	3
21.231913157477369	-20.781426354174162	0	3
18.013124788709977	-17.385620041775539	0	3
21.376920267460672	-20.632234428661725	0	3
19.209707254989681	-16.053647438143827	0	3
22.79695417468897	-19.051527445266856	0	3
19.321656363708467	-15.918732495189088	0	3
22.929808812580262	-18.891418301947088	0	3
20.410044799568638	-14.496983140302889	0	3
24.22144438865708	-17.20416953438373	0	3
20.511063502121971	-14.35370066925408	0	3
24.341327461435128	-17.03413029936689	0	3
21.48454763092964	-12.850940120665904	0	3
25.496601343521537	-15.250742197354217	0	3
21.574013113424147	-12.700173505603296	0	3
25.602773732177489	-15.071821219067964	0	3
22.426591081808898	-11.125666781813782	0	3
26.614563272622885	-13.203288963291611	0	3
22.50395175979471	-10.968345549054224	0	3
26.70637038907477	-13.016589349064351	0	3
23.230367141070506	-9.3318000075921468	0	3
27.568437568908134	-11.074433062231201	0	3
23.2951460602428	-9.1688940948502289	0	3
27.645313391754062	-10.88110587726857	0	3
23.890920262026448	-7.4803995831853172	0	3
28.352343280145298	-8.877299598719457	0	3
23.94271803880736	-7.3129133595847886	0	3
28.413813844373632	-8.6785367694045465	0	3
24.404177915029841	-5.5828800078628644	0	3
28.96144736694951	-6.6254346311799255	0	3
24.442675198901	-5.4118460816670524	0	3
29.007133686090729	-6.4224615964508169	0	3