[Format]      =  1
[Precision]   =  1e-008
[MinAngle]    =  10
[DoSmartMesh] =  1
[Depth]       =  136.37754166666667
[LengthUnits] =  millimeters
[ProblemType] =  planar
[Coordinates] =  cartesian
[PrevSoln] = ""
[dT] = 0
[Comment]     =  "Add comments here."
[PointProps]   = 0
[BdryProps]   = 1
  <BeginBdry>
    <BdryName> = "Exterieur"
    <BdryType> = 0
    <Tset> = 0
    <qs>   = 0
    <beta> = 0
    <h>    = 0
    <Tinf> = 0
  <EndBdry>
[BlockProps]  = 0
[ConductorProps]  = 0
[NumPoints] = 675
-25.034624999999998	0	0	9	0
-2.4062305432916182	24.918717933777319	0	3	0
-2.8555733151481295	29.572073290225003	0	3	0
-4.181165996840992	24.682996167351437	0	3	0
-4.9619626349065369	29.292332519798013	0	3	0
-4.3539130133468973	24.653111170049787	0	3	0
-5.1669686647655526	29.256866757360672	0	3	0
-6.1048824166105939	24.278856224500853	0	3	0
-7.2449164813371283	28.812722933091113	0	3	0
-6.2747521618518984	24.235509777967533	0	3	0
-7.446507934373261	28.76128191204177	0	3	0
-7.9909602062023861	23.725029059487259	0	3	0
-9.4832030084810768	28.15547332829907	0	3	0
-8.1569053767122508	23.668488408979307	0	3	0
-9.6801370063503942	28.088374199638373	0	3	0
-9.8277710688590219	23.024929200949185	0	3	0
-11.663022435592735	27.324635867793106	0	3	0
-9.98876855747889	22.955542938378652	0	3	0
-11.854084814711177	27.242292319961969	0	3	0
-11.603990454810637	22.182872997321347	0	3	0
-13.770935451040447	26.32533294079872	0	3	0
-11.759047658486065	22.101068912070257	0	3	0
-13.954948248306058	26.228252649151539	0	3	0
-13.308667380889947	21.204052005111212	0	3	0
-15.793946070131767	25.16372558216279	0	3	0
-13.456828320398527	21.110334446567755	0	3	0
-15.969774785458943	25.052507078980035	0	3	0
-14.931291946985082	20.094500981226766	0	3	0
-17.719581759680707	23.846975487524947	0	3	0
-15.071643160866227	19.989447749303611	0	3	0
-17.886142350570474	23.722304471862646	0	3	0
-16.461860133068637	18.861060676693409	0	3	0
-19.53597033532235	22.383200859082468	0	3	0
-16.59353630941726	18.745319459499111	0	3	0
-19.692235900344851	22.245845969209494	0	3	0
-17.890935477307838	17.511335661149115	0	3	0
-21.231913157477372	20.781426354174158	0	3	0
-18.01312478870998	17.385620041775535	0	3	0
-21.376920267460676	20.632234428661722	0	3	0
-19.209707254989684	16.053647438143823	0	3	0
-22.796954174688974	19.051527445266853	0	3	0
-19.32165636370847	15.918732495189087	0	3	0
-22.929808812580266	18.891418301947084	0	3	0
-20.410044799568638	14.496983140302888	0	3	0
-24.221444388657083	17.204169534383727	0	3	0
-20.511063502121971	14.353700669254078	0	3	0
-24.341327461435132	17.034130299366886	0	3	0
-21.48454763092964	12.850940120665902	0	3	0
-25.49660134352154	15.250742197354214	0	3	0
-21.574013113424147	12.700173505603294	0	3	0
-25.602773732177493	15.07182121906796	0	3	0
-22.426591081808898	11.125666781813779	0	3	0
-26.614563272622885	13.203288963291607	0	3	0
-22.50395175979471	10.96834554905422	0	3	0
-26.70637038907477	13.016589349064347	0	3	0
-23.230367141070506	9.3318000075921432	0	3	0
-27.568437568908134	11.074433062231197	0	3	0
-23.2951460602428	9.1688940948502253	0	3	0
-27.645313391754062	10.881105877268567	0	3	0
-23.890920262026448	7.4803995831853145	0	3	0
-28.352343280145298	8.8772995987194534	0	3	0
-23.94271803880736	7.3129133595847859	0	3	0
-28.413813844373632	8.678536769404543	0	3	0
-24.404177915029841	5.5828800078628618	0	3	0
-28.96144736694951	6.6254346311799219	0	3	0
-24.442675198901	5.4118460816670497	0	3	0
-29.007133686090729	6.4224615964508134	0	3	0
-24.76697569597442	3.6509401207959433	0	3	0
-29.391994500077949	4.3327216559585846	0	3	0
-24.791935138379117	3.4774129730343968	0	3	0
-29.421614902782313	4.1267898120697648	0	3	0
-24.977076835898156	1.6964909738235305	0	3	0
-29.641330213283435	2.0132960109521076	0	3	0
-24.988344553574109	1.5215404570658309	0	3	0
-29.654702079918483	1.8056749962004397	0	3	0
-25.033185991407706	-0.2684176041430002	0	3	0
-29.707917268981511	-0.31854227345075015	0	3	0
-25.03069251512855	-0.44371286178409108	0	3	0
-29.704958157542844	-0.52657240646832848	0	3	0
-24.934957230901169	-2.2316712983220786	0	3	0
-29.591345135831357	-2.648416638811729	0	3	0
-24.918717933777319	-2.4062305432916151	0	3	0
-29.572073290225003	-2.8555733151481255	0	3	0
-24.682996167351437	-4.1811659968409884	0	3	0
-29.292332519798013	-4.9619626349065324	0	3	0
-24.653111170049787	-4.3539130133468991	0	3	0
-29.256866757360672	-5.1669686647655553	0	3	0
-24.278856224500853	-6.1048824166105957	0	3	0
-28.812722933091113	-7.2449164813371318	0	3	0
-24.235509777967536	-6.2747521618518887	0	3	0
-28.761281912041774	-7.4465079343732494	0	3	0
-23.725029059487262	-7.9909602062023763	0	3	0
-28.155473328299077	-9.4832030084810643	0	3	0
-23.668488408979311	-8.1569053767122472	0	3	0
-28.088374199638377	-9.6801370063503889	0	3	0
-23.024929200949188	-9.8277710688590183	0	3	0
-27.324635867793109	-11.66302243559273	0	3	0
-22.955542938378656	-9.9887685574788847	0	3	0
-27.242292319961972	-11.854084814711172	0	3	0
-22.182872997321351	-11.603990454810631	0	3	0
-26.325332940798727	-13.77093545104044	0	3	0
-22.101068912070261	-11.759047658486054	0	3	0
-26.228252649151546	-13.954948248306048	0	3	0
-21.204052005111219	-13.308667380889938	0	3	0
-25.163725582162801	-15.793946070131758	0	3	0
-21.110334446567755	-13.456828320398527	0	3	0
-25.052507078980035	-15.969774785458943	0	3	0
-20.094500981226762	-14.931291946985082	0	3	0
-23.846975487524944	-17.719581759680707	0	3	0
-19.989447749303611	-15.071643160866227	0	3	0
-23.722304471862646	-17.886142350570474	0	3	0
-18.861060676693409	-16.461860133068637	0	3	0
-22.383200859082468	-19.53597033532235	0	3	0
-18.745319459499111	-16.593536309417264	0	3	0
-22.245845969209494	-19.692235900344855	0	3	0
-17.511335661149115	-17.890935477307842	0	3	0
-20.781426354174158	-21.231913157477372	0	3	0
-17.385620041775532	-18.01312478870998	0	3	0
-20.632234428661718	-21.376920267460676	0	3	0
-16.05364743814382	-19.209707254989684	0	3	0
-19.051527445266849	-22.796954174688974	0	3	0
-15.918732495189085	-19.32165636370847	0	3	0
-18.89141830194708	-22.929808812580269	0	3	0
-14.496983140302884	-20.410044799568638	0	3	0
-17.204169534383723	-24.221444388657087	0	3	0
-14.353700669254078	-20.511063502121971	0	3	0
-17.034130299366886	-24.341327461435132	0	3	0
-12.850940120665902	-21.48454763092964	0	3	0
-15.250742197354214	-25.49660134352154	0	3	0
-12.700173505603296	-21.574013113424147	0	3	0
-15.071821219067964	-25.602773732177493	0	3	0
-11.125666781813781	-22.426591081808898	0	3	0
-13.203288963291611	-26.614563272622885	0	3	0
-10.968345549054222	-22.50395175979471	0	3	0
-13.016589349064349	-26.70637038907477	0	3	0
-9.331800007592145	-23.230367141070506	0	3	0
-11.074433062231201	-27.568437568908134	0	3	0
-9.16889409485022	-23.295146060242804	0	3	0
-10.881105877268562	-27.645313391754065	0	3	0
-7.4803995831853101	-23.890920262026452	0	3	0
-8.8772995987194481	-28.352343280145302	0	3	0
-7.3129133595847824	-23.94271803880736	0	3	0
-8.6785367694045377	-28.413813844373632	0	3	0
-5.5828800078628582	-24.404177915029841	0	3	0
-6.6254346311799184	-28.96144736694951	0	3	0
-5.4118460816670462	-24.442675198901	0	3	0
-6.4224615964508081	-29.007133686090729	0	3	0
-3.6509401207959398	-24.76697569597442	0	3	0
-4.3327216559585802	-29.391994500077949	0	3	0
-3.4774129730343928	-24.791935138379117	0	3	0
-4.1267898120697604	-29.421614902782313	0	3	0
-1.6964909738235261	-24.977076835898156	0	3	0
-2.0132960109521023	-29.641330213283435	0	3	0
-1.5215404570658266	-24.988344553574109	0	3	0
-1.8056749962004348	-29.654702079918483	0	3	0
0.2684176041430042	-25.033185991407706	0	3	0
0.31854227345075503	-29.707917268981511	0	3	0
0.44371286178409508	-25.03069251512855	0	3	0
0.52657240646833325	-29.704958157542844	0	3	0
2.2316712983220826	-24.934957230901169	0	3	0
2.6484166388117334	-29.591345135831357	0	3	0
-21.808875	0	0	3	0
0	0	0	0	0
0	46.75	0	2	0
0	25.034624999999998	0	0	0
0	30.644624999999998	0	0	0
-3.0658573374104305e-015	-25.034624999999998	0	0	0
-3.752884191732096e-015	-30.644624999999998	0	0	0
-5.7252237860138761e-015	-46.75	0	2	0
0	21.808875	0	0	0
-2.6708168961754734e-015	-21.808875	0	0	0
-3.4352141435800085	30.451475254548388	0	6	0
-3.5653557422053384	31.605116193507886	0	6	0
-1.3304270833333334	32.956469826915281	0	6	0
-1.7236448761549454	32.367977812195853	0	6	0
-1.9981564001132412	44.23493484795047	0	6	0
-1.3304270833333334	43.465321291447395	0	6	0
-5.7797052300952263	43.901219771834882	0	6	0
-4.1514616838375353	31.533482158829838	0	6	0
-9.5187727256845864	43.244826925292465	0	6	0
-9.9645590719405739	42.328616250648025	0	6	0
-7.2446681707661451	32.177845216420756	0	6	0
-6.7125360080232257	31.711177834493785	0	6	0
-4.7361368022537595	31.450979942824496	0	6	0
-4.5632596872278395	30.302965241334821	0	6	0
-11.199583807462668	28.524767552606715	0	6	0
-11.62387518486209	29.605416005527744	0	6	0
-9.8148559303383553	31.489165481847024	0	6	0
-10.042362210480995	30.818953592609237	0	6	0
-13.378914469352933	42.21050506240686	0	6	0
-12.534746831512784	41.6399365160743	0	6	0
-16.945238330269188	40.909424194580303	0	6	0
-12.171469798373892	29.384527461248769	0	6	0
-20.387013220742702	39.307655513131266	0	6	0
-20.580476993674193	38.307285963712758	0	6	0
-15.326051261408134	29.206353630830645	0	6	0
-14.691268656244858	28.893313492570137	0	6	0
-12.714869450475396	29.15351138423944	0	6	0
-12.250754911494301	28.089358224942114	0	6	0
-18.200720343054083	24.654144081362109	0	6	0
-18.890246743032485	25.588155642034099	0	6	0
-17.630418565507139	27.875926547497311	0	6	0
-17.676709155950988	27.169668616415194	0	6	0
-23.847921627207761	37.30949911301802	0	6	0
-22.884844297773196	36.976858880379424	0	6	0
-26.955981441565687	35.129718964485072	0	6	0
-19.362012360455942	25.233065777411237	0	6	0
-29.865912455939529	32.691732336722275	0	6	0
-29.793869419135241	31.675377444133723	0	6	0
-22.362989286082399	24.244497311080881	0	6	0
-21.66881562401279	24.106417584586008	0	6	0
-19.827104757962402	24.869279203273983	0	6	0
-19.103381433872151	23.961507865378877	0	6	0
-23.961507865378877	19.103381433872151	0	6	0
-24.869279203273983	19.827104757962402	0	6	0
-24.244497311080881	22.362989286082399	0	6	0
-24.106417584586008	21.66881562401279	0	6	0
-32.691732336722275	29.865912455939529	0	6	0
-31.675377444133723	29.793869419135241	0	6	0
-35.129718964485072	26.955981441565694	0	6	0
-25.233065777411237	19.362012360455946	0	6	0
-37.309499113018013	23.847921627207768	0	6	0
-36.976858880379417	22.884844297773203	0	6	0
-27.875926547497308	17.630418565507146	0	6	0
-27.169668616415191	17.676709155950995	0	6	0
-25.588155642034096	18.890246743032492	0	6	0
-24.654144081362102	18.200720343054087	0	6	0
-28.089358224942114	12.250754911494306	0	6	0
-29.153511384239437	12.714869450475401	0	6	0
-29.206353630830641	15.326051261408141	0	6	0
-28.893313492570133	14.691268656244866	0	6	0
-39.307655513131259	20.387013220742709	0	6	0
-38.307285963712751	20.5804769936742	0	6	0
-40.909424194580296	16.945238330269195	0	6	0
-29.384527461248769	12.171469798373895	0	6	0
-42.21050506240686	13.378914469352933	0	6	0
-41.6399365160743	12.534746831512784	0	6	0
-31.489165481847024	9.8148559303383553	0	6	0
-30.818953592609237	10.042362210480995	0	6	0
-29.605416005527744	11.62387518486209	0	6	0
-28.524767552606715	11.199583807462668	0	6	0
-30.302965241334821	4.5632596872278395	0	6	0
-31.450979942824496	4.7361368022537595	0	6	0
-32.177845216420756	7.2446681707661451	0	6	0
-31.711177834493785	6.7125360080232257	0	6	0
-43.244826925292465	9.5187727256845864	0	6	0
-42.328616250648025	9.9645590719405739	0	6	0
-43.901219771834882	5.7797052300952272	0	6	0
-31.533482158829838	4.1514616838375353	0	6	0
-44.23493484795047	1.9981564001132439	0	6	0
-43.465321291447395	1.330427083333336	0	6	0
-32.956469826915281	1.3304270833333354	0	6	0
-32.367977812195853	1.7236448761549474	0	6	0
-31.605116193507886	3.5653557422053401	0	6	0
-30.451475254548388	3.4352141435800103	0	6	0
-30.451475254548388	-3.4352141435800068	0	6	0
-31.605116193507886	-3.5653557422053366	0	6	0
-32.956469826915281	-1.3304270833333314	0	6	0
-32.367977812195853	-1.7236448761549434	0	6	0
-44.23493484795047	-1.9981564001132386	0	6	0
-43.465321291447395	-1.3304270833333307	0	6	0
-43.901219771834882	-5.7797052300952236	0	6	0
-31.533482158829838	-4.1514616838375336	0	6	0
-43.244826925292465	-9.51877272568459	0	6	0
-42.328616250648025	-9.9645590719405774	0	6	0
-32.177845216420756	-7.2446681707661487	0	6	0
-31.711177834493785	-6.7125360080232293	0	6	0
-31.450979942824496	-4.7361368022537631	0	6	0
-30.302965241334821	-4.563259687227843	0	6	0
-28.524767552606715	-11.199583807462671	0	6	0
-29.605416005527744	-11.623875184862094	0	6	0
-31.489165481847024	-9.8148559303383589	0	6	0
-30.818953592609237	-10.042362210480999	0	6	0
-42.21050506240686	-13.378914469352937	0	6	0
-41.6399365160743	-12.534746831512788	0	6	0
-40.909424194580303	-16.945238330269191	0	6	0
-29.384527461248769	-12.171469798373895	0	6	0
-39.307655513131266	-20.387013220742695	0	6	0
-38.307285963712758	-20.580476993674186	0	6	0
-29.206353630830645	-15.32605126140813	0	6	0
-28.893313492570137	-14.691268656244855	0	6	0
-29.153511384239437	-12.714869450475391	0	6	0
-28.089358224942114	-12.250754911494296	0	6	0
-24.654144081362109	-18.20072034305408	0	6	0
-25.588155642034103	-18.890246743032481	0	6	0
-27.875926547497311	-17.630418565507135	0	6	0
-27.169668616415194	-17.676709155950984	0	6	0
-37.30949911301802	-23.847921627207754	0	6	0
-36.976858880379424	-22.884844297773189	0	6	0
-35.129718964485079	-26.95598144156568	0	6	0
-25.233065777411237	-19.362012360455939	0	6	0
-32.691732336722275	-29.865912455939522	0	6	0
-31.675377444133723	-29.793869419135234	0	6	0
-24.244497311080881	-22.362989286082396	0	6	0
-24.106417584586008	-21.668815624012787	0	6	0
-24.869279203273983	-19.827104757962399	0	6	0
-23.961507865378877	-19.103381433872148	0	6	0
-19.103381433872151	-23.961507865378874	0	6	0
-19.827104757962402	-24.86927920327398	0	6	0
-22.362989286082399	-24.244497311080877	0	6	0
-21.66881562401279	-24.106417584586005	0	6	0
-29.865912455939529	-32.691732336722268	0	6	0
-29.793869419135241	-31.675377444133716	0	6	0
-26.955981441565697	-35.129718964485065	0	6	0
-19.36201236045595	-25.233065777411234	0	6	0
-23.847921627207761	-37.30949911301802	0	6	0
-22.884844297773196	-36.976858880379424	0	6	0
-17.630418565507139	-27.875926547497311	0	6	0
-17.676709155950988	-27.169668616415194	0	6	0
-18.890246743032485	-25.588155642034099	0	6	0
-18.200720343054083	-24.654144081362109	0	6	0
-12.250754911494301	-28.089358224942114	0	6	0
-12.714869450475396	-29.15351138423944	0	6	0
-15.326051261408134	-29.206353630830645	0	6	0
-14.691268656244858	-28.893313492570137	0	6	0
-20.387013220742702	-39.307655513131266	0	6	0
-20.580476993674193	-38.307285963712758	0	6	0
-16.945238330269188	-40.909424194580303	0	6	0
-12.17146979837389	-29.384527461248769	0	6	0
-13.378914469352942	-42.210505062406853	0	6	0
-12.534746831512795	-41.639936516074293	0	6	0
-9.8148559303383642	-31.489165481847021	0	6	0
-10.042362210481002	-30.818953592609226	0	6	0
-11.623875184862101	-29.60541600552774	0	6	0
-11.199583807462675	-28.524767552606711	0	6	0
-4.5632596872278484	-30.302965241334817	0	6	0
-4.7361368022537684	-31.450979942824492	0	6	0
-7.244668170766154	-32.177845216420749	0	6	0
-6.7125360080232346	-31.711177834493782	0	6	0
-9.5187727256845989	-43.244826925292458	0	6	0
-9.9645590719405845	-42.328616250648018	0	6	0
-5.7797052300952396	-43.901219771834882	0	6	0
-4.1514616838375442	-31.533482158829834	0	6	0
-1.9981564001132466	-44.23493484795047	0	6	0
-1.3304270833333387	-43.465321291447395	0	6	0
-1.3304270833333374	-32.956469826915281	0	6	0
-1.7236448761549494	-32.367977812195853	0	6	0
-3.5653557422053423	-31.605116193507886	0	6	0
-3.4352141435800121	-30.451475254548388	0	6	0
-6.1020994862874112	46.350047269225634	0	0	0
0	43.465321291447395	0	0	0
25.034624999999998	-3.0658573374104305e-015	0	9	0
2.4062305432916151	-24.918717933777319	0	3	0
2.855573315148126	-29.572073290225003	0	3	0
4.1811659968409893	-24.682996167351437	0	3	0
4.9619626349065333	-29.292332519798013	0	3	0
4.3539130133468946	-24.653111170049787	0	3	0
5.1669686647655491	-29.256866757360672	0	3	0
6.1048824166105913	-24.278856224500853	0	3	0
7.2449164813371247	-28.812722933091113	0	3	0
6.2747521618518958	-24.235509777967533	0	3	0
7.4465079343732574	-28.76128191204177	0	3	0
7.9909602062023835	-23.725029059487259	0	3	0
9.4832030084810732	-28.15547332829907	0	3	0
8.1569053767122472	-23.668488408979307	0	3	0
9.6801370063503906	-28.088374199638373	0	3	0
9.8277710688590183	-23.024929200949185	0	3	0
11.663022435592731	-27.324635867793106	0	3	0
9.9887685574788865	-22.955542938378652	0	3	0
11.854084814711173	-27.242292319961969	0	3	0
11.603990454810633	-22.182872997321347	0	3	0
13.770935451040444	-26.32533294079872	0	3	0
11.759047658486061	-22.101068912070257	0	3	0
13.954948248306055	-26.228252649151539	0	3	0
13.308667380889945	-21.204052005111212	0	3	0
15.793946070131764	-25.163725582162794	0	3	0
13.456828320398525	-21.110334446567755	0	3	0
15.96977478545894	-25.052507078980039	0	3	0
14.93129194698508	-20.094500981226769	0	3	0
17.719581759680704	-23.846975487524951	0	3	0
15.071643160866225	-19.989447749303615	0	3	0
17.88614235057047	-23.72230447186265	0	3	0
16.461860133068633	-18.861060676693413	0	3	0
19.535970335322347	-22.383200859082471	0	3	0
16.593536309417257	-18.745319459499115	0	3	0
19.692235900344848	-22.245845969209498	0	3	0
17.890935477307835	-17.511335661149118	0	3	0
21.231913157477369	-20.781426354174162	0	3	0
18.013124788709977	-17.385620041775539	0	3	0
21.376920267460672	-20.632234428661725	0	3	0
19.209707254989681	-16.053647438143827	0	3	0
22.79695417468897	-19.051527445266856	0	3	0
19.321656363708467	-15.918732495189088	0	3	0
22.929808812580262	-18.891418301947088	0	3	0
20.410044799568638	-14.496983140302889	0	3	0
24.22144438865708	-17.20416953438373	0	3	0
20.511063502121971	-14.35370066925408	0	3	0
24.341327461435128	-17.03413029936689	0	3	0
21.48454763092964	-12.850940120665904	0	3	0
25.496601343521537	-15.250742197354217	0	3	0
21.574013113424147	-12.700173505603296	0	3	0
25.602773732177489	-15.071821219067964	0	3	0
22.426591081808898	-11.125666781813782	0	3	0
26.614563272622885	-13.203288963291611	0	3	0
22.50395175979471	-10.968345549054224	0	3	0
26.70637038907477	-13.016589349064351	0	3	0
23.230367141070506	-9.3318000075921468	0	3	0
27.568437568908134	-11.074433062231201	0	3	0
23.2951460602428	-9.1688940948502289	0	3	0
27.645313391754062	-10.88110587726857	0	3	0
23.890920262026448	-7.4803995831853172	0	3	0
28.352343280145298	-8.877299598719457	0	3	0
23.94271803880736	-7.3129133595847886	0	3	0
28.413813844373632	-8.6785367694045465	0	3	0
24.404177915029841	-5.5828800078628644	0	3	0
28.96144736694951	-6.6254346311799255	0	3	0
24.442675198901	-5.4118460816670524	0	3	0
29.007133686090729	-6.4224615964508169	0	3	0
24.76697569597442	-3.6509401207959464	0	3	0
29.391994500077949	-4.3327216559585882	0	3	0
24.791935138379117	-3.4774129730343999	0	3	0
29.421614902782313	-4.1267898120697684	0	3	0
24.977076835898156	-1.6964909738235336	0	3	0
29.641330213283435	-2.0132960109521112	0	3	0
24.988344553574109	-1.521540457065834	0	3	0
29.654702079918483	-1.8056749962004432	0	3	0
25.033185991407706	0.26841760414299715	0	3	0
29.707917268981511	0.31854227345074648	0	3	0
25.03069251512855	0.44371286178408803	0	3	0
29.704958157542844	0.52657240646832482	0	3	0
24.934957230901169	2.2316712983220754	0	3	0
29.591345135831357	2.6484166388117254	0	3	0
24.918717933777319	2.406230543291612	0	3	0
29.572073290225003	2.855573315148122	0	3	0
24.682996167351437	4.1811659968409858	0	3	0
29.292332519798013	4.9619626349065289	0	3	0
24.653111170049787	4.3539130133468964	0	3	0
29.256866757360672	5.1669686647655517	0	3	0
24.278856224500853	6.1048824166105931	0	3	0
28.812722933091113	7.2449164813371283	0	3	0
24.235509777967536	6.274752161851886	0	3	0
28.761281912041774	7.4465079343732459	0	3	0
23.725029059487262	7.9909602062023737	0	3	0
28.155473328299077	9.4832030084810608	0	3	0
23.668488408979311	8.1569053767122437	0	3	0
28.088374199638377	9.6801370063503853	0	3	0
23.024929200949188	9.8277710688590147	0	3	0
27.324635867793109	11.663022435592726	0	3	0
22.955542938378656	9.9887685574788811	0	3	0
27.242292319961972	11.854084814711168	0	3	0
22.182872997321351	11.603990454810628	0	3	0
26.325332940798727	13.770935451040437	0	3	0
22.101068912070261	11.75904765848605	0	3	0
26.228252649151546	13.954948248306044	0	3	0
21.204052005111219	13.308667380889936	0	3	0
25.163725582162805	15.793946070131755	0	3	0
21.110334446567755	13.456828320398525	0	3	0
25.052507078980039	15.96977478545894	0	3	0
20.094500981226766	14.93129194698508	0	3	0
23.846975487524947	17.719581759680704	0	3	0
19.989447749303615	15.071643160866225	0	3	0
23.72230447186265	17.88614235057047	0	3	0
18.861060676693413	16.461860133068633	0	3	0
22.383200859082471	19.535970335322347	0	3	0
18.745319459499115	16.59353630941726	0	3	0
22.245845969209498	19.692235900344851	0	3	0
17.511335661149118	17.890935477307838	0	3	0
20.781426354174162	21.231913157477369	0	3	0
17.385620041775535	18.013124788709977	0	3	0
20.632234428661722	21.376920267460672	0	3	0
16.053647438143823	19.209707254989681	0	3	0
19.051527445266853	22.79695417468897	0	3	0
15.918732495189087	19.321656363708467	0	3	0
18.891418301947084	22.929808812580266	0	3	0
14.496983140302886	20.410044799568638	0	3	0
17.204169534383727	24.221444388657083	0	3	0
14.35370066925408	20.511063502121971	0	3	0
17.03413029936689	24.341327461435128	0	3	0
12.850940120665904	21.48454763092964	0	3	0
15.250742197354217	25.496601343521537	0	3	0
12.700173505603297	21.574013113424147	0	3	0
15.071821219067967	25.602773732177489	0	3	0
11.125666781813784	22.426591081808898	0	3	0
13.203288963291614	26.614563272622885	0	3	0
10.968345549054225	22.50395175979471	0	3	0
13.016589349064352	26.70637038907477	0	3	0
9.3318000075921486	23.230367141070506	0	3	0
11.074433062231204	27.568437568908134	0	3	0
9.1688940948502236	23.295146060242804	0	3	0
10.881105877268565	27.645313391754065	0	3	0
7.4803995831853127	23.890920262026452	0	3	0
8.8772995987194516	28.352343280145302	0	3	0
7.3129133595847851	23.94271803880736	0	3	0
8.6785367694045412	28.413813844373632	0	3	0
5.5828800078628609	24.404177915029841	0	3	0
6.6254346311799219	28.96144736694951	0	3	0
5.4118460816670488	24.442675198901	0	3	0
6.4224615964508116	29.007133686090729	0	3	0
3.6509401207959429	24.76697569597442	0	3	0
4.3327216559585837	29.391994500077949	0	3	0
3.4774129730343959	24.791935138379117	0	3	0
4.1267898120697639	29.421614902782313	0	3	0
1.6964909738235292	24.977076835898156	0	3	0
2.0132960109521059	29.641330213283435	0	3	0
1.5215404570658297	24.988344553574109	0	3	0
1.8056749962004384	29.654702079918483	0	3	0
-0.26841760414300114	25.033185991407706	0	3	0
-0.31854227345075137	29.707917268981511	0	3	0
-0.44371286178409203	25.03069251512855	0	3	0
-0.52657240646832959	29.704958157542844	0	3	0
-2.2316712983220794	24.934957230901169	0	3	0
-2.6484166388117298	29.591345135831357	0	3	0
21.808875	-2.6708168961754734e-015	0	3	0
3.435214143580005	-30.451475254548388	0	6	0
3.5653557422053344	-31.605116193507886	0	6	0
1.3304270833333294	-32.956469826915281	0	6	0
1.7236448761549414	-32.367977812195853	0	6	0
1.9981564001132359	-44.23493484795047	0	6	0
1.330427083333328	-43.465321291447395	0	6	0
5.779705230095221	-43.901219771834882	0	6	0
4.1514616838375318	-31.533482158829838	0	6	0
9.5187727256845811	-43.244826925292465	0	6	0
9.9645590719405686	-42.328616250648025	0	6	0
7.2446681707661416	-32.177845216420756	0	6	0
6.7125360080232221	-31.711177834493785	0	6	0
4.736136802253756	-31.450979942824496	0	6	0
4.5632596872278359	-30.302965241334821	0	6	0
11.199583807462664	-28.524767552606715	0	6	0
11.623875184862086	-29.605416005527744	0	6	0
9.8148559303383518	-31.489165481847024	0	6	0
10.042362210480992	-30.818953592609237	0	6	0
13.378914469352928	-42.21050506240686	0	6	0
12.534746831512779	-41.6399365160743	0	6	0
16.945238330269184	-40.909424194580303	0	6	0
12.171469798373888	-29.384527461248769	0	6	0
20.387013220742698	-39.307655513131266	0	6	0
20.580476993674189	-38.307285963712758	0	6	0
15.32605126140813	-29.206353630830648	0	6	0
14.691268656244855	-28.89331349257014	0	6	0
12.714869450475392	-29.15351138423944	0	6	0
12.250754911494298	-28.089358224942114	0	6	0
18.20072034305408	-24.654144081362112	0	6	0
18.890246743032481	-25.588155642034103	0	6	0
17.630418565507135	-27.875926547497315	0	6	0
17.676709155950984	-27.169668616415198	0	6	0
23.847921627207757	-37.30949911301802	0	6	0
22.884844297773192	-36.976858880379424	0	6	0
26.955981441565683	-35.129718964485072	0	6	0
19.362012360455939	-25.233065777411241	0	6	0
29.865912455939526	-32.691732336722282	0	6	0
29.793869419135238	-31.675377444133726	0	6	0
22.362989286082396	-24.244497311080885	0	6	0
21.668815624012787	-24.106417584586012	0	6	0
19.827104757962399	-24.869279203273987	0	6	0
19.103381433872148	-23.961507865378881	0	6	0
23.961507865378874	-19.103381433872155	0	6	0
24.86927920327398	-19.827104757962406	0	6	0
24.244497311080877	-22.362989286082403	0	6	0
24.106417584586005	-21.668815624012794	0	6	0
32.691732336722268	-29.865912455939533	0	6	0
31.675377444133719	-29.793869419135245	0	6	0
35.129718964485072	-26.955981441565697	0	6	0
25.233065777411234	-19.36201236045595	0	6	0
37.309499113018013	-23.847921627207771	0	6	0
36.976858880379417	-22.884844297773206	0	6	0
27.875926547497304	-17.630418565507149	0	6	0
27.169668616415187	-17.676709155950999	0	6	0
25.588155642034092	-18.890246743032495	0	6	0
24.654144081362098	-18.20072034305409	0	6	0
28.089358224942114	-12.25075491149431	0	6	0
29.153511384239437	-12.714869450475405	0	6	0
29.206353630830638	-15.326051261408145	0	6	0
28.89331349257013	-14.691268656244869	0	6	0
39.307655513131259	-20.387013220742713	0	6	0
38.307285963712751	-20.580476993674203	0	6	0
40.909424194580296	-16.945238330269198	0	6	0
29.384527461248769	-12.171469798373899	0	6	0
42.21050506240686	-13.378914469352939	0	6	0
41.6399365160743	-12.534746831512789	0	6	0
31.489165481847024	-9.8148559303383589	0	6	0
30.818953592609237	-10.042362210480999	0	6	0
29.605416005527744	-11.623875184862094	0	6	0
28.524767552606715	-11.199583807462671	0	6	0
30.302965241334821	-4.563259687227843	0	6	0
31.450979942824496	-4.7361368022537631	0	6	0
32.177845216420756	-7.2446681707661487	0	6	0
31.711177834493785	-6.7125360080232293	0	6	0
43.244826925292465	-9.5187727256845918	0	6	0
42.328616250648025	-9.9645590719405792	0	6	0
43.901219771834882	-5.7797052300952325	0	6	0
31.533482158829838	-4.1514616838375389	0	6	0
44.23493484795047	-1.9981564001132492	0	6	0
43.465321291447395	-1.3304270833333414	0	6	0
32.956469826915281	-1.3304270833333394	0	6	0
32.367977812195853	-1.7236448761549514	0	6	0
31.605116193507886	-3.5653557422053441	0	6	0
30.451475254548388	-3.4352141435800139	0	6	0
30.451475254548388	3.4352141435800032	0	6	0
31.605116193507886	3.5653557422053326	0	6	0
32.956469826915281	1.3304270833333274	0	6	0
32.367977812195853	1.7236448761549394	0	6	0
44.23493484795047	1.9981564001132333	0	6	0
43.465321291447395	1.3304270833333254	0	6	0
43.901219771834882	5.7797052300952183	0	6	0
31.533482158829838	4.15146168383753	0	6	0
43.244826925292465	9.5187727256845847	0	6	0
42.328616250648025	9.9645590719405721	0	6	0
32.177845216420756	7.2446681707661451	0	6	0
31.711177834493785	6.7125360080232257	0	6	0
31.450979942824496	4.7361368022537595	0	6	0
30.302965241334821	4.5632596872278395	0	6	0
28.524767552606715	11.199583807462668	0	6	0
29.605416005527744	11.62387518486209	0	6	0
31.489165481847024	9.8148559303383553	0	6	0
30.818953592609237	10.042362210480995	0	6	0
42.21050506240686	13.378914469352932	0	6	0
41.6399365160743	12.534746831512782	0	6	0
40.909424194580303	16.945238330269188	0	6	0
29.384527461248769	12.171469798373892	0	6	0
39.307655513131266	20.387013220742691	0	6	0
38.307285963712758	20.580476993674182	0	6	0
29.206353630830648	15.326051261408127	0	6	0
28.89331349257014	14.691268656244851	0	6	0
29.153511384239437	12.714869450475387	0	6	0
28.089358224942114	12.250754911494292	0	6	0
24.654144081362112	18.200720343054076	0	6	0
25.588155642034106	18.890246743032478	0	6	0
27.875926547497315	17.630418565507131	0	6	0
27.169668616415198	17.676709155950981	0	6	0
37.30949911301802	23.84792162720775	0	6	0
36.976858880379424	22.884844297773185	0	6	0
35.129718964485079	26.955981441565676	0	6	0
25.233065777411241	19.362012360455935	0	6	0
32.691732336722282	29.865912455939519	0	6	0
31.675377444133726	29.79386941913523	0	6	0
24.244497311080885	22.362989286082392	0	6	0
24.106417584586012	21.668815624012783	0	6	0
24.869279203273987	19.827104757962395	0	6	0
23.961507865378881	19.103381433872144	0	6	0
19.103381433872155	23.96150786537887	0	6	0
19.827104757962406	24.869279203273976	0	6	0
22.362989286082403	24.244497311080874	0	6	0
21.668815624012794	24.106417584586001	0	6	0
29.865912455939533	32.691732336722261	0	6	0
29.793869419135245	31.675377444133712	0	6	0
26.955981441565701	35.129718964485065	0	6	0
19.362012360455953	25.23306577741123	0	6	0
23.847921627207764	37.30949911301802	0	6	0
22.884844297773199	36.976858880379424	0	6	0
17.630418565507142	27.875926547497308	0	6	0
17.676709155950991	27.169668616415191	0	6	0
18.890246743032488	25.588155642034096	0	6	0
18.200720343054087	24.654144081362105	0	6	0
12.250754911494305	28.089358224942114	0	6	0
12.714869450475399	29.15351138423944	0	6	0
15.326051261408137	29.206353630830641	0	6	0
14.691268656244862	28.893313492570133	0	6	0
20.387013220742705	39.307655513131266	0	6	0
20.580476993674196	38.307285963712758	0	6	0
16.945238330269191	40.909424194580303	0	6	0
12.171469798373893	29.384527461248769	0	6	0
13.378914469352948	42.210505062406853	0	6	0
12.5347468315128	41.639936516074293	0	6	0
9.8148559303383678	31.489165481847021	0	6	0
10.042362210481006	30.818953592609226	0	6	0
11.623875184862104	29.60541600552774	0	6	0
11.199583807462679	28.524767552606711	0	6	0
4.5632596872278519	30.302965241334817	0	6	0
4.736136802253772	31.450979942824492	0	6	0
7.2446681707661575	32.177845216420749	0	6	0
6.7125360080232381	31.711177834493782	0	6	0
9.5187727256846042	43.244826925292458	0	6	0
9.9645590719405899	42.328616250648018	0	6	0